version 3
run General-0-20241125-02:17:09-14696
attr configname General
attr datetime 20241125-02:17:09
attr datetimef 20241125-021709
attr experiment General
attr inifile omnetpp.ini
attr iterationvars ""
attr iterationvarsd ""
attr iterationvarsf ""
attr measurement ""
attr network ZeroWaitNetwork
attr processid 14696
attr repetition 0
attr replication #0
attr resultdir results
attr runnumber 0
attr seedset 0
config image-path ../../inet4.5/images
config network ZeroWaitNetwork
config sim-time-limit 100s
config *.control.numApps 1
config *.sensor*.numApps 1
config *.control.app[0].typename DQNControllerApp
config *.control.app[0].destAddresses "\"sensor0 sensor1 sensor2 sensor3 sensor4 sensor5 sensor6\""
config *.sensor*.app[0].typename DQNSensorApp
config *.sensor*.app[0].destAddresses "\"control\""
config *.control.app[0].destPort 1000
config *.control.app[0].localPort 1000
config *.sensor*.app[0].destPort 1000
config *.sensor*.app[0].localPort 1000
config *.control.app[0].packetSize 10Byte
config *.sensor*.app[0].packetSize 10Byte
config *.control.app[0].messageLength 10Byte
config *.sensor*.app[0].messageLength 10Byte
config *.control.app[0].useAutoConfig true
config *.sensor*.app[0].useAutoConfig true
config *.control.app[0].startTime 2s
config *.sensor[0].app[0].startTime 3s
config *.sensor[1].app[0].startTime 4s
config *.sensor[2].app[0].startTime 5s
config *.sensor[3].app[0].startTime 6s
config *.sensor[4].app[0].startTime 7s
config *.sensor[5].app[0].startTime 8s
config *.sensor[6].app[0].startTime 9s
config *.sensor[7].app[0].startTime 9s
config *.sensor[8].app[0].startTime 9s
config *.sensor[9].app[0].startTime 9s
config *.sensor[10].app[0].startTime 9s
config *.control.app[0].sendInterval exponential(1s)
config *.sensor[0].app[0].sendInterval exponential(1s)
config *.sensor[1].app[0].sendInterval exponential(1.2s)
config *.sensor[2].app[0].sendInterval exponential(1.4s)
config *.sensor[3].app[0].sendInterval exponential(1.6s)
config *.sensor[4].app[0].sendInterval exponential(1.8s)
config *.sensor[5].app[0].sendInterval exponential(2s)
config *.sensor[6].app[0].sendInterval exponential(2.2s)
config *.control.wlan[0].typename WirelessInterface
config *.sensor*.wlan[0].typename WirelessInterface
config *.control.wlan[0].radio.typename UnitDiskRadio
config *.sensor*.wlan[0].radio.typename UnitDiskRadio
config *.control.wlan[0].mac.typename CsmaCaMac
config *.control.wlan[0].mac.ackTimeout 300us
config *.control.wlan[0].queue.typename DropTailQueue
config *.control.wlan[0].queue.packetCapacity 10
config *.control.wlan[0].mac.useAck true
config *.sensor*.wlan[0].mac.typename CsmaCaMac
config *.sensor*.wlan[0].mac.ackTimeout 300us
config *.sensor*.wlan[0].queue.typename DropTailQueue
config *.sensor*.wlan[0].queue.packetCapacity 10
config *.sensor*.wlan[0].mac.useAck true
config *.control.wlan[0].radio.transmitter.communicationRange 500m
config *.sensor*.wlan[0].radio.transmitter.communicationRange 500m
config *.control.wlan[0].radio.transmitter.bitrate 1Mbps
config *.sensor*.wlan[0].radio.transmitter.bitrate 1Mbps
config *.control.wlan[*].bitrate 1Mbps
config *.sensor*.wlan[*].bitrate 1Mbps
config record-eventlog false
config *.visualizer.mediumVisualizer.displayCommunicationRanges true
config *.visualizer.packetDropVisualizer.displayPackets true
config *.visualizer.queueVisualizer.displayQueues true

vector 0 ZeroWaitNetwork.control.wlan[0].queue queueLength:vector ETV
attr autoWarmupFilter false
attr interpolationmode sample-hold
attr recordingmode vector
attr source "warmup(atomic(constant0(packetPushEnded) + count(packetPushStarted) - count(packetPulled) - count(packetRemoved) - count(packetDropped)))"
attr title "queue length"
attr unit pk
vector 1 ZeroWaitNetwork.control.wlan[0].queue queueBitLength:vector ETV
attr autoWarmupFilter false
attr interpolationmode sample-hold
attr recordingmode vector
attr source "warmup(atomic(constant0(packetPushEnded) + sum(packetLength(packetPushStarted)) - sum(packetLength(packetPulled)) - sum(packetLength(packetRemoved)) - sum(packetLength(packetDropped))))"
attr title "queue bit length"
attr unit b
vector 2 ZeroWaitNetwork.control.udp passedUpPk:vector(count) ETV
attr interpolationmode none
attr recordingmode vector(count)
attr source packetSentToUpper
attr title "packets passed up, count"
vector 3 ZeroWaitNetwork.control.udp droppedPkWrongPort:vector(count) ETV
attr interpolationmode none
attr recordingmode vector(count)
attr source packetDropReasonIsNoPortFound(packetDropped)
attr title "packets dropped (wrong port), count"
vector 4 ZeroWaitNetwork.control.udp droppedPkBadChecksum:vector(count) ETV
attr interpolationmode none
attr recordingmode vector(count)
attr source packetDropReasonIsIncorrectlyReceived(packetDropped)
attr title "packets dropped (checksum error), count"
vector 5 ZeroWaitNetwork.sensor0.wlan[0].queue queueLength:vector ETV
attr autoWarmupFilter false
attr interpolationmode sample-hold
attr recordingmode vector
attr source "warmup(atomic(constant0(packetPushEnded) + count(packetPushStarted) - count(packetPulled) - count(packetRemoved) - count(packetDropped)))"
attr title "queue length"
attr unit pk
vector 6 ZeroWaitNetwork.sensor0.wlan[0].queue queueBitLength:vector ETV
attr autoWarmupFilter false
attr interpolationmode sample-hold
attr recordingmode vector
attr source "warmup(atomic(constant0(packetPushEnded) + sum(packetLength(packetPushStarted)) - sum(packetLength(packetPulled)) - sum(packetLength(packetRemoved)) - sum(packetLength(packetDropped))))"
attr title "queue bit length"
attr unit b
vector 7 ZeroWaitNetwork.sensor0.udp passedUpPk:vector(count) ETV
attr interpolationmode none
attr recordingmode vector(count)
attr source packetSentToUpper
attr title "packets passed up, count"
vector 8 ZeroWaitNetwork.sensor0.udp droppedPkWrongPort:vector(count) ETV
attr interpolationmode none
attr recordingmode vector(count)
attr source packetDropReasonIsNoPortFound(packetDropped)
attr title "packets dropped (wrong port), count"
vector 9 ZeroWaitNetwork.sensor0.udp droppedPkBadChecksum:vector(count) ETV
attr interpolationmode none
attr recordingmode vector(count)
attr source packetDropReasonIsIncorrectlyReceived(packetDropped)
attr title "packets dropped (checksum error), count"
vector 10 ZeroWaitNetwork.sensor1.wlan[0].queue queueLength:vector ETV
attr autoWarmupFilter false
attr interpolationmode sample-hold
attr recordingmode vector
attr source "warmup(atomic(constant0(packetPushEnded) + count(packetPushStarted) - count(packetPulled) - count(packetRemoved) - count(packetDropped)))"
attr title "queue length"
attr unit pk
vector 11 ZeroWaitNetwork.sensor1.wlan[0].queue queueBitLength:vector ETV
attr autoWarmupFilter false
attr interpolationmode sample-hold
attr recordingmode vector
attr source "warmup(atomic(constant0(packetPushEnded) + sum(packetLength(packetPushStarted)) - sum(packetLength(packetPulled)) - sum(packetLength(packetRemoved)) - sum(packetLength(packetDropped))))"
attr title "queue bit length"
attr unit b
vector 12 ZeroWaitNetwork.sensor1.udp passedUpPk:vector(count) ETV
attr interpolationmode none
attr recordingmode vector(count)
attr source packetSentToUpper
attr title "packets passed up, count"
vector 13 ZeroWaitNetwork.sensor1.udp droppedPkWrongPort:vector(count) ETV
attr interpolationmode none
attr recordingmode vector(count)
attr source packetDropReasonIsNoPortFound(packetDropped)
attr title "packets dropped (wrong port), count"
vector 14 ZeroWaitNetwork.sensor1.udp droppedPkBadChecksum:vector(count) ETV
attr interpolationmode none
attr recordingmode vector(count)
attr source packetDropReasonIsIncorrectlyReceived(packetDropped)
attr title "packets dropped (checksum error), count"
vector 15 ZeroWaitNetwork.sensor2.wlan[0].queue queueLength:vector ETV
attr autoWarmupFilter false
attr interpolationmode sample-hold
attr recordingmode vector
attr source "warmup(atomic(constant0(packetPushEnded) + count(packetPushStarted) - count(packetPulled) - count(packetRemoved) - count(packetDropped)))"
attr title "queue length"
attr unit pk
vector 16 ZeroWaitNetwork.sensor2.wlan[0].queue queueBitLength:vector ETV
attr autoWarmupFilter false
attr interpolationmode sample-hold
attr recordingmode vector
attr source "warmup(atomic(constant0(packetPushEnded) + sum(packetLength(packetPushStarted)) - sum(packetLength(packetPulled)) - sum(packetLength(packetRemoved)) - sum(packetLength(packetDropped))))"
attr title "queue bit length"
attr unit b
vector 17 ZeroWaitNetwork.sensor2.udp passedUpPk:vector(count) ETV
attr interpolationmode none
attr recordingmode vector(count)
attr source packetSentToUpper
attr title "packets passed up, count"
vector 18 ZeroWaitNetwork.sensor2.udp droppedPkWrongPort:vector(count) ETV
attr interpolationmode none
attr recordingmode vector(count)
attr source packetDropReasonIsNoPortFound(packetDropped)
attr title "packets dropped (wrong port), count"
vector 19 ZeroWaitNetwork.sensor2.udp droppedPkBadChecksum:vector(count) ETV
attr interpolationmode none
attr recordingmode vector(count)
attr source packetDropReasonIsIncorrectlyReceived(packetDropped)
attr title "packets dropped (checksum error), count"
vector 20 ZeroWaitNetwork.sensor3.wlan[0].queue queueLength:vector ETV
attr autoWarmupFilter false
attr interpolationmode sample-hold
attr recordingmode vector
attr source "warmup(atomic(constant0(packetPushEnded) + count(packetPushStarted) - count(packetPulled) - count(packetRemoved) - count(packetDropped)))"
attr title "queue length"
attr unit pk
vector 21 ZeroWaitNetwork.sensor3.wlan[0].queue queueBitLength:vector ETV
attr autoWarmupFilter false
attr interpolationmode sample-hold
attr recordingmode vector
attr source "warmup(atomic(constant0(packetPushEnded) + sum(packetLength(packetPushStarted)) - sum(packetLength(packetPulled)) - sum(packetLength(packetRemoved)) - sum(packetLength(packetDropped))))"
attr title "queue bit length"
attr unit b
vector 22 ZeroWaitNetwork.sensor3.udp passedUpPk:vector(count) ETV
attr interpolationmode none
attr recordingmode vector(count)
attr source packetSentToUpper
attr title "packets passed up, count"
vector 23 ZeroWaitNetwork.sensor3.udp droppedPkWrongPort:vector(count) ETV
attr interpolationmode none
attr recordingmode vector(count)
attr source packetDropReasonIsNoPortFound(packetDropped)
attr title "packets dropped (wrong port), count"
vector 24 ZeroWaitNetwork.sensor3.udp droppedPkBadChecksum:vector(count) ETV
attr interpolationmode none
attr recordingmode vector(count)
attr source packetDropReasonIsIncorrectlyReceived(packetDropped)
attr title "packets dropped (checksum error), count"
vector 25 ZeroWaitNetwork.sensor4.wlan[0].queue queueLength:vector ETV
attr autoWarmupFilter false
attr interpolationmode sample-hold
attr recordingmode vector
attr source "warmup(atomic(constant0(packetPushEnded) + count(packetPushStarted) - count(packetPulled) - count(packetRemoved) - count(packetDropped)))"
attr title "queue length"
attr unit pk
vector 26 ZeroWaitNetwork.sensor4.wlan[0].queue queueBitLength:vector ETV
attr autoWarmupFilter false
attr interpolationmode sample-hold
attr recordingmode vector
attr source "warmup(atomic(constant0(packetPushEnded) + sum(packetLength(packetPushStarted)) - sum(packetLength(packetPulled)) - sum(packetLength(packetRemoved)) - sum(packetLength(packetDropped))))"
attr title "queue bit length"
attr unit b
vector 27 ZeroWaitNetwork.sensor4.udp passedUpPk:vector(count) ETV
attr interpolationmode none
attr recordingmode vector(count)
attr source packetSentToUpper
attr title "packets passed up, count"
vector 28 ZeroWaitNetwork.sensor4.udp droppedPkWrongPort:vector(count) ETV
attr interpolationmode none
attr recordingmode vector(count)
attr source packetDropReasonIsNoPortFound(packetDropped)
attr title "packets dropped (wrong port), count"
vector 29 ZeroWaitNetwork.sensor4.udp droppedPkBadChecksum:vector(count) ETV
attr interpolationmode none
attr recordingmode vector(count)
attr source packetDropReasonIsIncorrectlyReceived(packetDropped)
attr title "packets dropped (checksum error), count"
vector 30 ZeroWaitNetwork.sensor5.wlan[0].queue queueLength:vector ETV
attr autoWarmupFilter false
attr interpolationmode sample-hold
attr recordingmode vector
attr source "warmup(atomic(constant0(packetPushEnded) + count(packetPushStarted) - count(packetPulled) - count(packetRemoved) - count(packetDropped)))"
attr title "queue length"
attr unit pk
vector 31 ZeroWaitNetwork.sensor5.wlan[0].queue queueBitLength:vector ETV
attr autoWarmupFilter false
attr interpolationmode sample-hold
attr recordingmode vector
attr source "warmup(atomic(constant0(packetPushEnded) + sum(packetLength(packetPushStarted)) - sum(packetLength(packetPulled)) - sum(packetLength(packetRemoved)) - sum(packetLength(packetDropped))))"
attr title "queue bit length"
attr unit b
vector 32 ZeroWaitNetwork.sensor5.udp passedUpPk:vector(count) ETV
attr interpolationmode none
attr recordingmode vector(count)
attr source packetSentToUpper
attr title "packets passed up, count"
vector 33 ZeroWaitNetwork.sensor5.udp droppedPkWrongPort:vector(count) ETV
attr interpolationmode none
attr recordingmode vector(count)
attr source packetDropReasonIsNoPortFound(packetDropped)
attr title "packets dropped (wrong port), count"
vector 34 ZeroWaitNetwork.sensor5.udp droppedPkBadChecksum:vector(count) ETV
attr interpolationmode none
attr recordingmode vector(count)
attr source packetDropReasonIsIncorrectlyReceived(packetDropped)
attr title "packets dropped (checksum error), count"
vector 35 ZeroWaitNetwork.sensor6.wlan[0].queue queueLength:vector ETV
attr autoWarmupFilter false
attr interpolationmode sample-hold
attr recordingmode vector
attr source "warmup(atomic(constant0(packetPushEnded) + count(packetPushStarted) - count(packetPulled) - count(packetRemoved) - count(packetDropped)))"
attr title "queue length"
attr unit pk
vector 36 ZeroWaitNetwork.sensor6.wlan[0].queue queueBitLength:vector ETV
attr autoWarmupFilter false
attr interpolationmode sample-hold
attr recordingmode vector
attr source "warmup(atomic(constant0(packetPushEnded) + sum(packetLength(packetPushStarted)) - sum(packetLength(packetPulled)) - sum(packetLength(packetRemoved)) - sum(packetLength(packetDropped))))"
attr title "queue bit length"
attr unit b
vector 37 ZeroWaitNetwork.sensor6.udp passedUpPk:vector(count) ETV
attr interpolationmode none
attr recordingmode vector(count)
attr source packetSentToUpper
attr title "packets passed up, count"
vector 38 ZeroWaitNetwork.sensor6.udp droppedPkWrongPort:vector(count) ETV
attr interpolationmode none
attr recordingmode vector(count)
attr source packetDropReasonIsNoPortFound(packetDropped)
attr title "packets dropped (wrong port), count"
vector 39 ZeroWaitNetwork.sensor6.udp droppedPkBadChecksum:vector(count) ETV
attr interpolationmode none
attr recordingmode vector(count)
attr source packetDropReasonIsIncorrectlyReceived(packetDropped)
attr title "packets dropped (checksum error), count"
vector 40 ZeroWaitNetwork.control.wlan[0].radio radioMode:vector ETV
attr interpolationmode sample-hold
attr recordingmode vector
attr source radioModeChanged
attr title "Radio mode"
vector 41 ZeroWaitNetwork.sensor0.wlan[0].radio radioMode:vector ETV
attr interpolationmode sample-hold
attr recordingmode vector
attr source radioModeChanged
attr title "Radio mode"
vector 42 ZeroWaitNetwork.sensor1.wlan[0].radio radioMode:vector ETV
attr interpolationmode sample-hold
attr recordingmode vector
attr source radioModeChanged
attr title "Radio mode"
vector 43 ZeroWaitNetwork.sensor2.wlan[0].radio radioMode:vector ETV
attr interpolationmode sample-hold
attr recordingmode vector
attr source radioModeChanged
attr title "Radio mode"
vector 44 ZeroWaitNetwork.sensor3.wlan[0].radio radioMode:vector ETV
attr interpolationmode sample-hold
attr recordingmode vector
attr source radioModeChanged
attr title "Radio mode"
vector 45 ZeroWaitNetwork.sensor4.wlan[0].radio radioMode:vector ETV
attr interpolationmode sample-hold
attr recordingmode vector
attr source radioModeChanged
attr title "Radio mode"
vector 46 ZeroWaitNetwork.sensor5.wlan[0].radio radioMode:vector ETV
attr interpolationmode sample-hold
attr recordingmode vector
attr source radioModeChanged
attr title "Radio mode"
vector 47 ZeroWaitNetwork.sensor6.wlan[0].radio radioMode:vector ETV
attr interpolationmode sample-hold
attr recordingmode vector
attr source radioModeChanged
attr title "Radio mode"
vector 48 ZeroWaitNetwork.control.wlan[0].radio receptionState:vector ETV
attr interpolationmode sample-hold
attr recordingmode vector
attr source receptionStateChanged
attr title "Radio reception state"
vector 49 ZeroWaitNetwork.sensor0.wlan[0].radio receptionState:vector ETV
attr interpolationmode sample-hold
attr recordingmode vector
attr source receptionStateChanged
attr title "Radio reception state"
vector 50 ZeroWaitNetwork.sensor1.wlan[0].radio receptionState:vector ETV
attr interpolationmode sample-hold
attr recordingmode vector
attr source receptionStateChanged
attr title "Radio reception state"
vector 51 ZeroWaitNetwork.sensor2.wlan[0].radio receptionState:vector ETV
attr interpolationmode sample-hold
attr recordingmode vector
attr source receptionStateChanged
attr title "Radio reception state"
vector 52 ZeroWaitNetwork.sensor3.wlan[0].radio receptionState:vector ETV
attr interpolationmode sample-hold
attr recordingmode vector
attr source receptionStateChanged
attr title "Radio reception state"
vector 53 ZeroWaitNetwork.sensor4.wlan[0].radio receptionState:vector ETV
attr interpolationmode sample-hold
attr recordingmode vector
attr source receptionStateChanged
attr title "Radio reception state"
vector 54 ZeroWaitNetwork.sensor5.wlan[0].radio receptionState:vector ETV
attr interpolationmode sample-hold
attr recordingmode vector
attr source receptionStateChanged
attr title "Radio reception state"
vector 55 ZeroWaitNetwork.sensor6.wlan[0].radio receptionState:vector ETV
attr interpolationmode sample-hold
attr recordingmode vector
attr source receptionStateChanged
attr title "Radio reception state"
vector 56 ZeroWaitNetwork.sensor2.udp packetSent:vector(packetBytes) ETV
attr interpolationmode none
attr recordingmode vector(packetBytes)
attr source packetSent
attr title "packets sent, packetBytes"
vector 57 ZeroWaitNetwork.sensor3.udp packetSent:vector(packetBytes) ETV
attr interpolationmode none
attr recordingmode vector(packetBytes)
attr source packetSent
attr title "packets sent, packetBytes"
vector 58 ZeroWaitNetwork.sensor6.udp packetSent:vector(packetBytes) ETV
attr interpolationmode none
attr recordingmode vector(packetBytes)
attr source packetSent
attr title "packets sent, packetBytes"
vector 59 ZeroWaitNetwork.sensor2.ipv4.arp arpRequestSent:vector(packetBytes) ETV
attr recordingmode vector(packetBytes)
attr source arpRequestSent
attr title "ARP request sent, packetBytes"
vector 60 ZeroWaitNetwork.sensor3.ipv4.arp arpRequestSent:vector(packetBytes) ETV
attr recordingmode vector(packetBytes)
attr source arpRequestSent
attr title "ARP request sent, packetBytes"
vector 61 ZeroWaitNetwork.sensor6.ipv4.arp arpRequestSent:vector(packetBytes) ETV
attr recordingmode vector(packetBytes)
attr source arpRequestSent
attr title "ARP request sent, packetBytes"
vector 62 ZeroWaitNetwork.sensor2.wlan[0].queue incomingPacketLengths:vector ETV
attr interpolationmode none
attr recordingmode vector
attr source packetLength(packetPushStarted)
attr title "incoming packet lengths"
attr unit b
vector 63 ZeroWaitNetwork.sensor2.wlan[0].queue incomingDataRate:vector ETV
attr interpolationmode linear
attr recordingmode vector
attr source throughput(packetPushStarted)
attr title "incoming datarate"
attr unit bps
vector 64 ZeroWaitNetwork.sensor2.wlan[0].queue queueingTime:vector ETV
attr interpolationmode none
attr recordingmode vector
attr source queueingTime(packetPulled)
attr title "queueing times"
attr unit s
vector 65 ZeroWaitNetwork.sensor2.wlan[0].queue outgoingPacketLengths:vector ETV
attr interpolationmode none
attr recordingmode vector
attr source packetLength(packetPulled)
attr title "outgoing packet lengths"
attr unit b
vector 66 ZeroWaitNetwork.sensor2.wlan[0].queue outgoingDataRate:vector ETV
attr interpolationmode linear
attr recordingmode vector
attr source throughput(packetPulled)
attr title "outgoing datarate"
attr unit bps
vector 67 ZeroWaitNetwork.sensor3.wlan[0].queue incomingPacketLengths:vector ETV
attr interpolationmode none
attr recordingmode vector
attr source packetLength(packetPushStarted)
attr title "incoming packet lengths"
attr unit b
vector 68 ZeroWaitNetwork.sensor3.wlan[0].queue incomingDataRate:vector ETV
attr interpolationmode linear
attr recordingmode vector
attr source throughput(packetPushStarted)
attr title "incoming datarate"
attr unit bps
vector 69 ZeroWaitNetwork.sensor3.wlan[0].queue queueingTime:vector ETV
attr interpolationmode none
attr recordingmode vector
attr source queueingTime(packetPulled)
attr title "queueing times"
attr unit s
vector 70 ZeroWaitNetwork.sensor3.wlan[0].queue outgoingPacketLengths:vector ETV
attr interpolationmode none
attr recordingmode vector
attr source packetLength(packetPulled)
attr title "outgoing packet lengths"
attr unit b
vector 71 ZeroWaitNetwork.sensor3.wlan[0].queue outgoingDataRate:vector ETV
attr interpolationmode linear
attr recordingmode vector
attr source throughput(packetPulled)
attr title "outgoing datarate"
attr unit bps
vector 72 ZeroWaitNetwork.sensor6.wlan[0].queue incomingPacketLengths:vector ETV
attr interpolationmode none
attr recordingmode vector
attr source packetLength(packetPushStarted)
attr title "incoming packet lengths"
attr unit b
vector 73 ZeroWaitNetwork.sensor6.wlan[0].queue incomingDataRate:vector ETV
attr interpolationmode linear
attr recordingmode vector
attr source throughput(packetPushStarted)
attr title "incoming datarate"
attr unit bps
vector 74 ZeroWaitNetwork.sensor6.wlan[0].queue queueingTime:vector ETV
attr interpolationmode none
attr recordingmode vector
attr source queueingTime(packetPulled)
attr title "queueing times"
attr unit s
vector 75 ZeroWaitNetwork.sensor6.wlan[0].queue outgoingPacketLengths:vector ETV
attr interpolationmode none
attr recordingmode vector
attr source packetLength(packetPulled)
attr title "outgoing packet lengths"
attr unit b
vector 76 ZeroWaitNetwork.sensor6.wlan[0].queue outgoingDataRate:vector ETV
attr interpolationmode linear
attr recordingmode vector
attr source throughput(packetPulled)
attr title "outgoing datarate"
attr unit bps
vector 77 ZeroWaitNetwork.sensor3.wlan[0].radio transmissionState:vector ETV
attr interpolationmode sample-hold
attr recordingmode vector
attr source transmissionStateChanged
attr title "Radio transmission state"
vector 78 ZeroWaitNetwork.control.ipv4.arp arpReplySent:vector(packetBytes) ETV
attr recordingmode vector(packetBytes)
attr source arpReplySent
attr title "ARP replies sent, packetBytes"
vector 79 ZeroWaitNetwork.control.wlan[0].queue incomingPacketLengths:vector ETV
attr interpolationmode none
attr recordingmode vector
attr source packetLength(packetPushStarted)
attr title "incoming packet lengths"
attr unit b
vector 80 ZeroWaitNetwork.control.wlan[0].queue incomingDataRate:vector ETV
attr interpolationmode linear
attr recordingmode vector
attr source throughput(packetPushStarted)
attr title "incoming datarate"
attr unit bps
vector 81 ZeroWaitNetwork.control.wlan[0].queue queueingTime:vector ETV
attr interpolationmode none
attr recordingmode vector
attr source queueingTime(packetPulled)
attr title "queueing times"
attr unit s
vector 82 ZeroWaitNetwork.control.wlan[0].queue outgoingPacketLengths:vector ETV
attr interpolationmode none
attr recordingmode vector
attr source packetLength(packetPulled)
attr title "outgoing packet lengths"
attr unit b
vector 83 ZeroWaitNetwork.control.wlan[0].queue outgoingDataRate:vector ETV
attr interpolationmode linear
attr recordingmode vector
attr source throughput(packetPulled)
attr title "outgoing datarate"
attr unit bps
vector 84 ZeroWaitNetwork.sensor2.wlan[0].radio transmissionState:vector ETV
attr interpolationmode sample-hold
attr recordingmode vector
attr source transmissionStateChanged
attr title "Radio transmission state"
vector 85 ZeroWaitNetwork.control.wlan[0].radio transmissionState:vector ETV
attr interpolationmode sample-hold
attr recordingmode vector
attr source transmissionStateChanged
attr title "Radio transmission state"
vector 86 ZeroWaitNetwork.sensor6.wlan[0].mac packetDropNotAddressedToUs:vector(packetBytes) ETV
attr interpolationmode none
attr recordingmode vector(packetBytes)
attr source packetDropReasonIsNotAddressedToUs(packetDropped)
attr title "packet drop: not addressed to us, packetBytes"
vector 87 ZeroWaitNetwork.sensor5.wlan[0].mac packetDropNotAddressedToUs:vector(packetBytes) ETV
attr interpolationmode none
attr recordingmode vector(packetBytes)
attr source packetDropReasonIsNotAddressedToUs(packetDropped)
attr title "packet drop: not addressed to us, packetBytes"
vector 88 ZeroWaitNetwork.sensor0.wlan[0].mac packetDropNotAddressedToUs:vector(packetBytes) ETV
attr interpolationmode none
attr recordingmode vector(packetBytes)
attr source packetDropReasonIsNotAddressedToUs(packetDropped)
attr title "packet drop: not addressed to us, packetBytes"
vector 89 ZeroWaitNetwork.sensor4.wlan[0].mac packetDropNotAddressedToUs:vector(packetBytes) ETV
attr interpolationmode none
attr recordingmode vector(packetBytes)
attr source packetDropReasonIsNotAddressedToUs(packetDropped)
attr title "packet drop: not addressed to us, packetBytes"
vector 90 ZeroWaitNetwork.sensor2.wlan[0].mac packetDropNotAddressedToUs:vector(packetBytes) ETV
attr interpolationmode none
attr recordingmode vector(packetBytes)
attr source packetDropReasonIsNotAddressedToUs(packetDropped)
attr title "packet drop: not addressed to us, packetBytes"
vector 91 ZeroWaitNetwork.sensor1.wlan[0].mac packetDropNotAddressedToUs:vector(packetBytes) ETV
attr interpolationmode none
attr recordingmode vector(packetBytes)
attr source packetDropReasonIsNotAddressedToUs(packetDropped)
attr title "packet drop: not addressed to us, packetBytes"
vector 92 ZeroWaitNetwork.sensor6.wlan[0].radio transmissionState:vector ETV
attr interpolationmode sample-hold
attr recordingmode vector
attr source transmissionStateChanged
attr title "Radio transmission state"
vector 93 ZeroWaitNetwork.control.udp packetReceived:vector(packetBytes) ETV
attr interpolationmode none
attr recordingmode vector(packetBytes)
attr source packetReceived
attr title "packets received, packetBytes"
vector 94 ZeroWaitNetwork.control.udp packetSent:vector(packetBytes) ETV
attr interpolationmode none
attr recordingmode vector(packetBytes)
attr source packetSent
attr title "packets sent, packetBytes"
vector 95 ZeroWaitNetwork.sensor3.wlan[0].mac packetDropNotAddressedToUs:vector(packetBytes) ETV
attr interpolationmode none
attr recordingmode vector(packetBytes)
attr source packetDropReasonIsNotAddressedToUs(packetDropped)
attr title "packet drop: not addressed to us, packetBytes"
vector 96 ZeroWaitNetwork.sensor3.udp packetReceived:vector(packetBytes) ETV
attr interpolationmode none
attr recordingmode vector(packetBytes)
attr source packetReceived
attr title "packets received, packetBytes"
vector 97 ZeroWaitNetwork.sensor2.udp packetReceived:vector(packetBytes) ETV
attr interpolationmode none
attr recordingmode vector(packetBytes)
attr source packetReceived
attr title "packets received, packetBytes"
vector 98 ZeroWaitNetwork.sensor6.udp packetReceived:vector(packetBytes) ETV
attr interpolationmode none
attr recordingmode vector(packetBytes)
attr source packetReceived
attr title "packets received, packetBytes"
vector 99 ZeroWaitNetwork.sensor0.udp packetSent:vector(packetBytes) ETV
attr interpolationmode none
attr recordingmode vector(packetBytes)
attr source packetSent
attr title "packets sent, packetBytes"
vector 100 ZeroWaitNetwork.sensor1.udp packetSent:vector(packetBytes) ETV
attr interpolationmode none
attr recordingmode vector(packetBytes)
attr source packetSent
attr title "packets sent, packetBytes"
vector 101 ZeroWaitNetwork.sensor5.udp packetSent:vector(packetBytes) ETV
attr interpolationmode none
attr recordingmode vector(packetBytes)
attr source packetSent
attr title "packets sent, packetBytes"
vector 102 ZeroWaitNetwork.sensor0.ipv4.arp arpRequestSent:vector(packetBytes) ETV
attr recordingmode vector(packetBytes)
attr source arpRequestSent
attr title "ARP request sent, packetBytes"
vector 103 ZeroWaitNetwork.sensor1.ipv4.arp arpRequestSent:vector(packetBytes) ETV
attr recordingmode vector(packetBytes)
attr source arpRequestSent
attr title "ARP request sent, packetBytes"
vector 104 ZeroWaitNetwork.sensor5.ipv4.arp arpRequestSent:vector(packetBytes) ETV
attr recordingmode vector(packetBytes)
attr source arpRequestSent
attr title "ARP request sent, packetBytes"
vector 105 ZeroWaitNetwork.sensor0.wlan[0].queue incomingPacketLengths:vector ETV
attr interpolationmode none
attr recordingmode vector
attr source packetLength(packetPushStarted)
attr title "incoming packet lengths"
attr unit b
vector 106 ZeroWaitNetwork.sensor0.wlan[0].queue incomingDataRate:vector ETV
attr interpolationmode linear
attr recordingmode vector
attr source throughput(packetPushStarted)
attr title "incoming datarate"
attr unit bps
vector 107 ZeroWaitNetwork.sensor0.wlan[0].queue queueingTime:vector ETV
attr interpolationmode none
attr recordingmode vector
attr source queueingTime(packetPulled)
attr title "queueing times"
attr unit s
vector 108 ZeroWaitNetwork.sensor0.wlan[0].queue outgoingPacketLengths:vector ETV
attr interpolationmode none
attr recordingmode vector
attr source packetLength(packetPulled)
attr title "outgoing packet lengths"
attr unit b
vector 109 ZeroWaitNetwork.sensor0.wlan[0].queue outgoingDataRate:vector ETV
attr interpolationmode linear
attr recordingmode vector
attr source throughput(packetPulled)
attr title "outgoing datarate"
attr unit bps
vector 110 ZeroWaitNetwork.sensor1.wlan[0].queue incomingPacketLengths:vector ETV
attr interpolationmode none
attr recordingmode vector
attr source packetLength(packetPushStarted)
attr title "incoming packet lengths"
attr unit b
vector 111 ZeroWaitNetwork.sensor1.wlan[0].queue incomingDataRate:vector ETV
attr interpolationmode linear
attr recordingmode vector
attr source throughput(packetPushStarted)
attr title "incoming datarate"
attr unit bps
vector 112 ZeroWaitNetwork.sensor1.wlan[0].queue queueingTime:vector ETV
attr interpolationmode none
attr recordingmode vector
attr source queueingTime(packetPulled)
attr title "queueing times"
attr unit s
vector 113 ZeroWaitNetwork.sensor1.wlan[0].queue outgoingPacketLengths:vector ETV
attr interpolationmode none
attr recordingmode vector
attr source packetLength(packetPulled)
attr title "outgoing packet lengths"
attr unit b
vector 114 ZeroWaitNetwork.sensor1.wlan[0].queue outgoingDataRate:vector ETV
attr interpolationmode linear
attr recordingmode vector
attr source throughput(packetPulled)
attr title "outgoing datarate"
attr unit bps
vector 115 ZeroWaitNetwork.sensor5.wlan[0].queue incomingPacketLengths:vector ETV
attr interpolationmode none
attr recordingmode vector
attr source packetLength(packetPushStarted)
attr title "incoming packet lengths"
attr unit b
vector 116 ZeroWaitNetwork.sensor5.wlan[0].queue incomingDataRate:vector ETV
attr interpolationmode linear
attr recordingmode vector
attr source throughput(packetPushStarted)
attr title "incoming datarate"
attr unit bps
vector 117 ZeroWaitNetwork.sensor5.wlan[0].queue queueingTime:vector ETV
attr interpolationmode none
attr recordingmode vector
attr source queueingTime(packetPulled)
attr title "queueing times"
attr unit s
vector 118 ZeroWaitNetwork.sensor5.wlan[0].queue outgoingPacketLengths:vector ETV
attr interpolationmode none
attr recordingmode vector
attr source packetLength(packetPulled)
attr title "outgoing packet lengths"
attr unit b
vector 119 ZeroWaitNetwork.sensor5.wlan[0].queue outgoingDataRate:vector ETV
attr interpolationmode linear
attr recordingmode vector
attr source throughput(packetPulled)
attr title "outgoing datarate"
attr unit bps
vector 120 ZeroWaitNetwork.sensor0.wlan[0].radio transmissionState:vector ETV
attr interpolationmode sample-hold
attr recordingmode vector
attr source transmissionStateChanged
attr title "Radio transmission state"
vector 121 ZeroWaitNetwork.sensor1.wlan[0].radio transmissionState:vector ETV
attr interpolationmode sample-hold
attr recordingmode vector
attr source transmissionStateChanged
attr title "Radio transmission state"
vector 122 ZeroWaitNetwork.sensor3.wlan[0].mac packetDropIncorrectlyReceived:vector(packetBytes) ETV
attr interpolationmode none
attr recordingmode vector(packetBytes)
attr source packetDropReasonIsIncorrectlyReceived(packetDropped)
attr title "packet drop: incorrectly received, packetBytes"
vector 123 ZeroWaitNetwork.sensor5.wlan[0].mac packetDropIncorrectlyReceived:vector(packetBytes) ETV
attr interpolationmode none
attr recordingmode vector(packetBytes)
attr source packetDropReasonIsIncorrectlyReceived(packetDropped)
attr title "packet drop: incorrectly received, packetBytes"
vector 124 ZeroWaitNetwork.control.wlan[0].mac packetDropIncorrectlyReceived:vector(packetBytes) ETV
attr interpolationmode none
attr recordingmode vector(packetBytes)
attr source packetDropReasonIsIncorrectlyReceived(packetDropped)
attr title "packet drop: incorrectly received, packetBytes"
vector 125 ZeroWaitNetwork.sensor4.wlan[0].mac packetDropIncorrectlyReceived:vector(packetBytes) ETV
attr interpolationmode none
attr recordingmode vector(packetBytes)
attr source packetDropReasonIsIncorrectlyReceived(packetDropped)
attr title "packet drop: incorrectly received, packetBytes"
vector 126 ZeroWaitNetwork.sensor6.wlan[0].mac packetDropIncorrectlyReceived:vector(packetBytes) ETV
attr interpolationmode none
attr recordingmode vector(packetBytes)
attr source packetDropReasonIsIncorrectlyReceived(packetDropped)
attr title "packet drop: incorrectly received, packetBytes"
vector 127 ZeroWaitNetwork.sensor2.wlan[0].mac packetDropIncorrectlyReceived:vector(packetBytes) ETV
attr interpolationmode none
attr recordingmode vector(packetBytes)
attr source packetDropReasonIsIncorrectlyReceived(packetDropped)
attr title "packet drop: incorrectly received, packetBytes"
vector 128 ZeroWaitNetwork.sensor5.wlan[0].radio transmissionState:vector ETV
attr interpolationmode sample-hold
attr recordingmode vector
attr source transmissionStateChanged
attr title "Radio transmission state"
vector 129 ZeroWaitNetwork.sensor5.udp packetReceived:vector(packetBytes) ETV
attr interpolationmode none
attr recordingmode vector(packetBytes)
attr source packetReceived
attr title "packets received, packetBytes"
vector 130 ZeroWaitNetwork.sensor4.udp packetSent:vector(packetBytes) ETV
attr interpolationmode none
attr recordingmode vector(packetBytes)
attr source packetSent
attr title "packets sent, packetBytes"
vector 131 ZeroWaitNetwork.sensor4.ipv4.arp arpRequestSent:vector(packetBytes) ETV
attr recordingmode vector(packetBytes)
attr source arpRequestSent
attr title "ARP request sent, packetBytes"
vector 132 ZeroWaitNetwork.sensor4.wlan[0].queue incomingPacketLengths:vector ETV
attr interpolationmode none
attr recordingmode vector
attr source packetLength(packetPushStarted)
attr title "incoming packet lengths"
attr unit b
vector 133 ZeroWaitNetwork.sensor4.wlan[0].queue incomingDataRate:vector ETV
attr interpolationmode linear
attr recordingmode vector
attr source throughput(packetPushStarted)
attr title "incoming datarate"
attr unit bps
vector 134 ZeroWaitNetwork.sensor4.wlan[0].queue queueingTime:vector ETV
attr interpolationmode none
attr recordingmode vector
attr source queueingTime(packetPulled)
attr title "queueing times"
attr unit s
vector 135 ZeroWaitNetwork.sensor4.wlan[0].queue outgoingPacketLengths:vector ETV
attr interpolationmode none
attr recordingmode vector
attr source packetLength(packetPulled)
attr title "outgoing packet lengths"
attr unit b
vector 136 ZeroWaitNetwork.sensor4.wlan[0].queue outgoingDataRate:vector ETV
attr interpolationmode linear
attr recordingmode vector
attr source throughput(packetPulled)
attr title "outgoing datarate"
attr unit bps
vector 137 ZeroWaitNetwork.sensor4.wlan[0].radio transmissionState:vector ETV
attr interpolationmode sample-hold
attr recordingmode vector
attr source transmissionStateChanged
attr title "Radio transmission state"
vector 138 ZeroWaitNetwork.sensor1.wlan[0].mac packetDropIncorrectlyReceived:vector(packetBytes) ETV
attr interpolationmode none
attr recordingmode vector(packetBytes)
attr source packetDropReasonIsIncorrectlyReceived(packetDropped)
attr title "packet drop: incorrectly received, packetBytes"
vector 139 ZeroWaitNetwork.sensor0.wlan[0].mac packetDropIncorrectlyReceived:vector(packetBytes) ETV
attr interpolationmode none
attr recordingmode vector(packetBytes)
attr source packetDropReasonIsIncorrectlyReceived(packetDropped)
attr title "packet drop: incorrectly received, packetBytes"
vector 140 ZeroWaitNetwork.sensor0.udp packetReceived:vector(packetBytes) ETV
attr interpolationmode none
attr recordingmode vector(packetBytes)
attr source packetReceived
attr title "packets received, packetBytes"
vector 141 ZeroWaitNetwork.sensor1.udp packetReceived:vector(packetBytes) ETV
attr interpolationmode none
attr recordingmode vector(packetBytes)
attr source packetReceived
attr title "packets received, packetBytes"
vector 142 ZeroWaitNetwork.sensor4.udp packetReceived:vector(packetBytes) ETV
attr interpolationmode none
attr recordingmode vector(packetBytes)
attr source packetReceived
attr title "packets received, packetBytes"
0	0	0	0
0	0	0	0
0	0	0	0
0	0	0	0
0	0	0	0
0	82	0.100638578241	0
0	117	0.101417576244	1
0	173	0.102226732726	0
0	198	0.102905737149	1
0	240	0.103536879964	2
0	315	0.104596146288	1
0	363	0.105765164378	0
0	400	0.106396141849	1
0	452	0.107557159939	2
0	532	0.108680316421	1
0	584	0.109593582745	0
0	748	0.200610578241	1
0	757	0.200620578241	0
0	896	0.20311199042	0
0	983	0.205331112644	1
0	994	0.205341112644	0
0	1164	0.300890509045	1
0	1177	0.300900509045	0
0	1322	0.303475661088	1
0	1331	0.303485661088	0
0	1430	0.305629815573	1
0	1439	0.305639815573	0
0	1610	0.401110633162	1
0	1619	0.401120633162	0
0	1718	0.402904787647	1
0	1727	0.402914787647	0
0	1895	0.500670509045	1
0	1908	0.500680509045	0
0	1957	0.501671775369	1
0	2014	0.502732931851	2
0	2068	0.503654054075	3
0	2142	0.504917072165	2
0	2198	0.505950338489	1
0	2250	0.507123494971	0
0	2406	0.600650509045	1
0	2419	0.600660509045	0
0	2518	0.602844504606	1
0	2527	0.602854504606	0
0	2693	0.700690578241	1
0	2702	0.700700578241	0
0	2797	0.702704739146	1
0	2810	0.702714739146	0
0	2970	0.800770578241	1
0	2979	0.800780578241	0
0	3022	0.801871596331	1
0	3102	0.803034752813	0
0	3242	0.900690509045	1
0	3255	0.900700509045	0
0	3418	1.000810633162	1
0	3427	1.000820633162	0
0	3473	1.001991755386	1
0	3527	1.002952773476	2
0	3607	1.0040760398	1
0	3657	1.004909162024	0
0	3814	1.100750633162	1
0	3823	1.100760633162	0
0	3871	1.101651789644	1
0	3948	1.102735055968	0
0	4030	1.104459035242	1
0	4041	1.104469035242	0
0	4210	1.200758590714	0
0	4305	1.202147123333	0
0	4403	1.203626902219	1
0	4412	1.203636902219	0
0	4461	1.204628083647	1
0	4519	1.205529240129	2
0	4597	1.206652506453	1
0	4630	1.207423019015	2
0	4708	1.208526200443	1
0	4741	1.209336200443	2
0	4819	1.210419356925	1
0	4853	1.211089794125	2
0	4934	1.212213147379	1
0	5035	1.213937508172	0
0	5125	1.2164006896	1
0	5135	1.2164106896	0
0	5184	1.217341871028	1
0	5244	1.218343224282	2
0	5324	1.21942640571	1
0	5366	1.220177756901	2
0	5425	1.221138938329	3
0	5505	1.222242119757	2
0	5539	1.223013470948	3
0	5596	1.223934824202	4
0	5676	1.225178177456	3
0	5708	1.226128177456	4
0	5787	1.22731153071	3
0	5821	1.22810153071	4
0	5900	1.229244712138	3
0	5955	1.230478065392	2
0	6009	1.231711418646	1
0	6063	1.2328447719	0
0	6212	1.300670509045	1
0	6225	1.300680509045	0
0	6324	1.302312729142	0
0	6360	1.303003699541	1
0	6443	1.304582956263	0
0	6475	1.305292956263	1
0	6531	1.306154212985	2
0	6587	1.307355469707	3
0	6664	1.308578822961	2
0	6717	1.309472079683	1
0	6770	1.310325336405	0
0	6804	1.311015336405	1
0	6884	1.312318593127	0
0	6970	1.314081849849	1
0	6979	1.314091849849	0
0	7082	1.315955106571	1
0	7091	1.315965106571	0
0	7194	1.317948363293	1
0	7203	1.317958363293	0
0	7313	1.320041620015	1
0	7322	1.320051620015	0
0	7427	1.322334876737	1
0	7436	1.322344876737	0
0	7608	1.400810590714	1
0	7617	1.400820590714	0
0	7664	1.401691712938	1
0	7723	1.40269296966	2
0	7775	1.40371398775	3
0	7855	1.405077169178	2
0	7905	1.406350291402	1
0	7959	1.407703548124	0
0	8123	1.500650578241	1
0	8132	1.500660578241	0
0	8180	1.501531700465	1
0	8240	1.502832881893	2
0	8318	1.503976038375	1
0	8413	1.505460165022	0
0	8501	1.507244295439	1
0	8510	1.507254295439	0
0	8605	1.509478515536	1
0	8618	1.509488515536	0
0	8796	1.600890578241	1
0	8805	1.600900578241	0
0	8853	1.601831931495	1
0	8930	1.602995087977	0
0	8962	1.60368608598	1
0	9038	1.605189439234	0
0	9185	1.700690578241	1
0	9194	1.700700578241	0
0	9239	1.701671700465	1
0	9317	1.703054856947	0
0	9459	1.800770676627	1
0	9468	1.800780676627	0
0	9567	1.802504903748	1
0	9576	1.802514903748	0
0	9737	1.900610628361	1
0	9746	1.900620628361	0
0	9847	1.902604403361	1
0	9856	1.902614403361	0
0	9995	1.906240398922	1
0	10008	1.906250398922	0
0	10176	2.000770509045	1
0	10189	2.000780509045	0
0	10238	2.001851862299	1
0	10312	2.002954880389	0
0	10349	2.00362585786	1
0	10403	2.004566980084	2
0	10481	2.006090333338	1
0	10533	2.007383599662	0
0	10689	2.100650590714	1
0	10698	2.100660590714	0
0	10746	2.101531857038	1
0	10823	2.102615038466	0
0	10907	2.104559192951	1
0	10916	2.104569192951	0
0	11074	2.200930633162	1
0	11083	2.200940633162	0
0	11239	2.300770590714	1
0	11248	2.300780590714	0
0	11349	2.302665123333	1
0	11358	2.302675123333	0
0	11401	2.303766141423	1
0	11481	2.305109494677	0
0	11632	2.400670628361	1
0	11641	2.400680628361	0
0	11742	2.402684403361	1
0	11751	2.402694403361	0
0	11798	2.403625756615	1
0	11874	2.405189022939	0
0	12025	2.500610590714	1
0	12034	2.500620590714	0
0	12078	2.501531608804	1
0	12136	2.502412731028	2
0	12214	2.503655912456	1
0	12262	2.504688930546	0
0	12465	2.601661540078	1
0	12474	2.601671540078	0
0	12523	2.6025827968	1
0	12580	2.603603953282	2
0	12657	2.60476713471	1
0	12710	2.606060391432	0
0	12738	2.606991354807	1
0	12818	2.608314511289	0
0	12975	2.700890590714	1
0	12984	2.700900590714	0
0	13028	2.701791608804	1
0	13088	2.702832875128	2
0	13164	2.704236056556	1
0	13212	2.705549074646	0
0	13363	2.801030676627	1
0	13372	2.801040676627	0
0	13415	2.802051694717	1
0	13495	2.803335047971	0
0	13641	2.900610628361	1
0	13650	2.900620628361	0
0	13694	2.901551646451	1
0	13754	2.902492827879	2
0	13830	2.903936084601	1
0	13878	2.905289102691	0
0	14033	3.000730578241	1
0	14042	3.000740578241	0
0	14143	3.002704335545	1
0	14152	3.002714335545	0
0	14249	3.004578671623	1
0	14260	3.004588671623	0
0	14426	3.100790628361	1
0	14435	3.100800628361	0
0	14483	3.101771784843	1
0	14539	3.102812966271	2
0	14616	3.103936222993	1
0	14668	3.104909379475	0
0	14819	3.200730578241	1
0	14828	3.200740578241	0
0	14876	3.201691844565	1
0	14932	3.202633025993	2
0	15008	3.203816182475	1
0	15060	3.205209448799	0
0	15203	3.300630676627	1
0	15212	3.300640676627	0
0	15362	3.400850561112	1
0	15373	3.400860561112	0
0	15420	3.401911817834	1
0	15494	3.403254940058	0
0	15634	3.501090578241	1
0	15643	3.501100578241	0
0	15811	3.600670633162	1
0	15820	3.600680633162	0
0	15917	3.602282612436	1
0	15976	3.603183869158	2
0	16034	3.604105222412	3
0	16091	3.60502640384	4
0	16168	3.606369670164	3
0	16221	3.607762826646	2
0	16274	3.608676083368	1
0	16304	3.609407162724	2
0	16383	3.610810515978	1
0	16438	3.611843697406	0
0	16606	3.700770633162	1
0	16615	3.700780633162	0
0	16660	3.701671651252	1
0	16721	3.702553004506	2
0	16775	3.70359412673	3
0	16853	3.704857393054	2
0	16901	3.705890411144	1
0	16957	3.706803764398	0
0	17107	3.800910561112	1
0	17118	3.800920561112	0
0	17217	3.802844877972	1
0	17226	3.802854877972	0
0	17379	3.901150633162	1
0	17388	3.901160633162	0
0	17538	4.001070561112	1
0	17549	4.001080561112	0
0	17596	4.001971817834	1
0	17670	4.003414940058	0
0	17822	4.100670509045	1
0	17835	4.100680509045	0
0	17940	4.102564558168	1
0	17949	4.102574558168	0
0	17998	4.103545911422	1
0	18098	4.105197668726	2
0	18198	4.107608825208	3
0	18274	4.108992006636	2
0	18326	4.10986535989	1
0	18380	4.110958616612	0
0	18535	4.200850509045	1
0	18548	4.200860509045	0
0	18647	4.202644504606	1
0	18656	4.202654504606	0
0	18809	4.300790676627	1
0	18818	4.300800676627	0
0	18968	4.400870561112	1
0	18979	4.400880561112	0
0	19078	4.40282489719	1
0	19087	4.40283489719	0
0	19246	4.500630561112	1
0	19257	4.500640561112	0
0	19358	4.502704540386	1
0	19367	4.502714540386	0
0	19466	4.504538134068	1
0	19475	4.504548134068	0
0	19641	4.600630633162	1
0	19650	4.600640633162	0
0	19698	4.601571889884	1
0	19775	4.602715156208	0
0	19807	4.603626280245	1
0	19883	4.605009536967	0
0	20026	4.700610633162	1
0	20035	4.700620633162	0
0	20187	4.800650676627	1
0	20196	4.800660676627	0
0	20243	4.801571833109	1
0	20319	4.803175186363	0
0	20453	4.901210509045	1
0	20466	4.901220509045	0
0	20614	5.001210578241	1
0	20623	5.001220578241	0
0	20775	5.100630628361	1
0	20784	5.100640628361	0
0	20883	5.102864855482	1
0	20892	5.102874855482	0
0	21049	5.200670676627	1
0	21058	5.200680676627	0
0	21103	5.201951798851	1
0	21181	5.203135152105	0
0	21331	5.300690676627	1
0	21340	5.300700676627	0
0	21441	5.302604993487	1
0	21452	5.302614993487	0
0	21500	5.303546174915	1
0	21575	5.304669297139	0
0	21605	5.305319835786	1
0	21685	5.306903017214	0
0	21841	5.400950509045	1
0	21854	5.400960509045	0
0	21945	5.402662884328	1
0	22004	5.40354414105	2
0	22060	5.404725407374	3
0	22132	5.405808425464	2
0	22186	5.407201547688	1
0	22240	5.40841480441	0
0	22394	5.500650578241	1
0	22403	5.500660578241	0
0	22450	5.501571834963	1
0	22526	5.502674991445	0
0	22664	5.600850628361	1
0	22673	5.600860628361	0
0	22825	5.700650676627	1
0	22834	5.700660676627	0
0	22933	5.702865209246	1
0	22942	5.702875209246	0
0	23146	5.801641757199	1
0	23155	5.801651757199	0
0	23203	5.802723023523	1
0	23259	5.803804180005	2
0	23335	5.805027361433	1
0	23387	5.806180627757	0
0	23536	5.900750633162	1
0	23545	5.900760633162	0
0	23588	5.901831651252	1
0	23668	5.903234917576	0
0	23816	6.000790561112	1
0	23827	6.000800561112	0
0	23876	6.001811817834	1
0	23933	6.002712974316	2
0	24008	6.00385609654	1
0	24038	6.004586635187	2
0	24118	6.005949891909	1
0	24170	6.006943048391	0
0	24361	6.200970676627	1
0	24370	6.200980676627	0
0	24518	6.301150590714	1
0	24527	6.301160590714	0
0	24679	6.400830578241	1
0	24688	6.400840578241	0
0	24831	6.404926171923	1
0	24840	6.404936171923	0
0	25003	6.500810509045	1
0	25016	6.500820509045	0
0	25117	6.502604169916	1
0	25128	6.502614169916	0
0	25176	6.503585326398	1
0	25232	6.50462658312	2
0	25306	6.505989705344	1
0	25360	6.507282861826	0
0	25516	6.600670676627	1
0	25525	6.600680676627	0
0	25626	6.602664455513	1
0	25635	6.602674455513	0
0	25682	6.603765636941	1
0	25758	6.605068903265	0
0	25905	6.701150676627	1
0	25914	6.701160676627	0
0	25961	6.702051858055	1
0	26037	6.703355211309	0
0	26175	6.800610578241	1
0	26184	6.800620578241	0
0	26344	6.900750628361	1
0	26353	6.900760628361	0
0	26402	6.901631784843	1
0	26455	6.902592802933	2
0	26513	6.903653925157	3
0	26591	6.904917181879	2
0	26643	6.906070338361	1
0	26691	6.907363356451	0
0	26859	7.000610578241	1
0	26868	7.000620578241	0
0	26914	7.001551596331	1
0	26976	7.002552853053	2
0	27033	7.003654119377	3
0	27110	7.004757275859	2
0	27159	7.005570293949	1
0	27193	7.00624093673	2
0	27271	7.007444193452	1
0	27323	7.008537459776	0
0	27484	7.100970628361	1
0	27493	7.100980628361	0
0	27541	7.101871894685	1
0	27618	7.102975151407	0
0	27650	7.103706025102	1
0	27726	7.105089291426	0
0	27869	7.201130628361	1
0	27878	7.201140628361	0
0	28072	7.400750676627	1
0	28081	7.400760676627	0
0	28128	7.401631833109	1
0	28204	7.403255186363	0
0	28388	7.600610628361	1
0	28397	7.600620628361	0
0	28444	7.601571809789	1
0	28520	7.602695066511	0
0	28660	7.700910561112	1
0	28671	7.700920561112	0
0	28714	7.701891579202	1
0	28792	7.703054701426	0
0	28936	7.800750676627	1
0	28945	7.800760676627	0
0	29044	7.802844455513	1
0	29053	7.802854455513	0
0	29210	7.900810676627	1
0	29219	7.900820676627	0
0	29266	7.901871833109	1
0	29342	7.903015186363	0
0	29480	8.001150590714	1
0	29489	8.001160590714	0
0	29641	8.100670628361	1
0	29650	8.100680628361	0
0	29695	8.101651750585	1
0	29773	8.102955007307	0
0	29919	8.200650633162	1
0	29928	8.200660633162	0
0	29974	8.201851755386	1
0	30053	8.20299502171	0
0	30081	8.203745750947	1
0	30159	8.205188873171	0
0	30308	8.301070633162	1
0	30317	8.301080633162	0
0	30364	8.302031789644	1
0	30440	8.303555055968	0
0	30578	8.400870578241	1
0	30587	8.400880578241	0
0	30739	8.500630590714	1
0	30748	8.500640590714	0
0	30795	8.501591847436	1
0	30871	8.502755028864	0
0	31017	8.600930676627	1
0	31026	8.600940676627	0
0	31070	8.602011694717	1
0	31130	8.602932951439	2
0	31206	8.604036304693	1
0	31254	8.605369322783	0
0	31443	8.800670628361	1
0	31452	8.800680628361	0
0	31612	8.900790628361	1
0	31621	8.900800628361	0
0	31670	8.901671784843	1
0	31725	8.902572907067	2
0	31783	8.903534088495	3
0	31859	8.904697345217	2
0	31911	8.906010501699	1
0	31961	8.906943623923	0
0	32123	9.000750590714	1
0	32132	9.000760590714	0
0	32181	9.001631943968	1
0	32238	9.002593210292	2
0	32315	9.00367639172	1
0	32347	9.004486803974	2
0	32423	9.005670157228	1
0	32475	9.006963423552	0
0	32631	9.100910628361	1
0	32640	9.100920628361	0
0	32741	9.102764855482	1
0	32750	9.102774855482	0
0	32793	9.103645873572	1
0	32873	9.104749226826	0
0	33016	9.200950628361	1
0	33025	9.200960628361	0
0	33174	9.301010578241	1
0	33183	9.301020578241	0
0	33335	9.400650633162	1
0	33344	9.400660633162	0
0	33441	9.402845008445	1
0	33452	9.402855008445	0
0	33613	9.500870578241	1
0	33622	9.500880578241	0
0	33670	9.501831844565	1
0	33722	9.502792862655	2
0	33802	9.504136019137	1
0	33854	9.505029285461	0
0	34005	9.600850578241	1
0	34014	9.600860578241	0
0	34062	9.601811834963	1
0	34114	9.602792853053	2
0	34194	9.604236009535	1
0	34246	9.605489266257	0
0	34389	9.701010590714	1
0	34398	9.701020590714	0
0	34550	9.800710676627	1
0	34559	9.800720676627	0
0	34604	9.801971798851	1
0	34682	9.803095152105	0
0	34818	9.901190561112	1
0	34829	9.901200561112	0
0	34977	10.000990578241	1
0	34986	10.001000578241	0
0	35138	10.100990628361	1
0	35147	10.101000628361	0
0	35194	10.101931809789	1
0	35270	10.103355066511	0
0	35412	10.200750590714	1
0	35421	10.200760590714	0
0	35468	10.201651857038	1
0	35544	10.203015038466	0
0	35682	10.300610509045	1
0	35695	10.300620509045	0
0	35794	10.302724255629	1
0	35803	10.302734255629	0
0	36006	10.500690578241	1
0	36015	10.500700578241	0
0	36063	10.501811834963	1
0	36117	10.502732957187	2
0	36195	10.503896113669	1
0	36247	10.505029370391	0
0	36394	10.600810628361	1
0	36403	10.600820628361	0
0	36502	10.602884403361	1
0	36511	10.602894403361	0
0	36712	10.701920676627	1
0	36721	10.701930676627	0
0	36820	10.704234455513	1
0	36829	10.704244455513	0
0	36979	10.800870509045	1
0	36992	10.800880509045	0
0	37152	10.900830578241	1
0	37161	10.900840578241	0
0	37210	10.902011844565	1
0	37267	10.902933025993	2
0	37321	10.903814148217	3
0	37399	10.905097304699	2
0	37451	10.906310571023	1
0	37503	10.907243752451	0
0	37653	11.001150561112	1
0	37664	11.001160561112	0
0	37711	11.002031717594	1
0	37785	11.003374839818	0
0	37979	11.200850633162	1
0	37988	11.200860633162	0
0	38033	11.201811651252	1
0	38094	11.202692807734	2
0	38150	11.203574160988	3
0	38226	11.204697427312	2
0	38274	11.205550445402	1
0	38330	11.206383601884	0
0	38486	11.300670590714	1
0	38495	11.300680590714	0
0	38543	11.301551847436	1
0	38599	11.30257320069	2
0	38675	11.303976382118	1
0	38727	11.30480963884	0
0	38870	11.400610590714	1
0	38879	11.400620590714	0
0	39031	11.500690509045	1
0	39044	11.500700509045	0
0	39145	11.50276466995	1
0	39154	11.50277466995	0
0	39201	11.503665926672	1
0	39277	11.504789083154	0
0	39468	11.700650561112	1
0	39479	11.700660561112	0
0	39527	11.701531827436	1
0	39602	11.70273494966	0
0	39632	11.703645488307	1
0	39712	11.704968754631	0
0	39859	11.800690628361	1
0	39868	11.800700628361	0
0	39915	11.802031981615	1
0	39991	11.803135238337	0
0	40129	11.901090676627	1
0	40138	11.901100676627	0
0	40286	12.000990578241	1
0	40295	12.001000578241	0
0	40449	12.100630561112	1
0	40460	12.100640561112	0
0	40508	12.101571827436	1
0	40583	12.10269494966	0
0	40617	12.103565488307	1
0	40693	12.104948754631	0
0	40848	12.200670509045	1
0	40861	12.200680509045	0
0	40909	12.201611631269	1
0	40969	12.202492984523	2
0	41026	12.203594241245	3
0	41082	12.204495507569	4
0	41154	12.205598525659	3
0	41208	12.206951647883	2
0	41262	12.208005001137	1
0	41314	12.208878257859	0
0	41468	12.301010628361	1
0	41477	12.301020628361	0
0	41629	12.400990676627	1
0	41638	12.401000676627	0
0	41737	12.4029051252	1
0	41746	12.4029151252	0
0	41903	12.500830578241	1
0	41912	12.500840578241	0
0	41959	12.502011759669	1
0	42035	12.503354916151	0
0	42173	12.600990590714	1
0	42182	12.601000590714	0
0	42326	12.701030509045	1
0	42339	12.701040509045	0
0	42491	12.800770628361	1
0	42500	12.800780628361	0
0	42599	12.802844855482	1
0	42608	12.802854855482	0
0	42765	12.900610633162	1
0	42774	12.900620633162	0
0	42819	12.901631755386	1
0	42897	12.90291502171	0
0	43073	13.101110509045	1
0	43086	13.101120509045	0
0	43234	13.200990578241	1
0	43243	13.201000578241	0
0	43403	13.300610633162	1
0	43412	13.300620633162	0
0	43461	13.301851889884	1
0	43518	13.302793243138	2
0	43595	13.303916509462	1
0	43627	13.304547633499	2
0	43703	13.305870890221	1
0	43755	13.306684243475	0
0	43905	13.400630561112	1
0	43916	13.400640561112	0
0	43963	13.401591827436	1
0	44037	13.40279494966	0
0	44219	13.600970509045	1
0	44232	13.600980509045	0
0	44279	13.601971665527	1
0	44351	13.603154683617	0
0	44505	13.700690590714	1
0	44514	13.700700590714	0
0	44617	13.702785123333	1
0	44626	13.702795123333	0
0	44674	13.703686380055	1
0	44751	13.704769733309	0
0	44783	13.705400828628	1
0	44859	13.70648408535	0
0	45015	13.800870590714	1
0	45024	13.800880590714	0
0	45070	13.801771712938	1
0	45128	13.802833066192	2
0	45204	13.80411624762	1
0	45254	13.805009369844	0
0	45395	13.901210509045	1
0	45408	13.901220509045	0
0	45558	14.000950561112	1
0	45569	14.000960561112	0
0	45612	14.001831579202	1
0	45690	14.003134701426	0
0	45834	14.100870633162	1
0	45843	14.100880633162	0
0	45938	14.102744628723	1
0	45951	14.102754628723	0
0	46104	14.200790628361	1
0	46113	14.200800628361	0
0	46307	14.401070578241	1
0	46316	14.401080578241	0
0	46361	14.401991700465	1
0	46439	14.403434856947	0
0	46589	14.500650633162	1
0	46598	14.500660633162	0
0	46647	14.50171181459	1
0	46704	14.502633167844	2
0	46781	14.503816434168	1
0	46813	14.504527322329	2
0	46889	14.505610503757	1
0	46941	14.506703857011	0
0	47093	14.600910509045	1
0	47106	14.600920509045	0
0	47154	14.602031765767	1
0	47210	14.602913032091	2
0	47282	14.604216050181	1
0	47338	14.605189306903	0
0	47481	14.700810628361	1
0	47490	14.700820628361	0
0	47636	14.800870561112	1
0	47647	14.800880561112	0
0	47797	14.900730561112	1
0	47808	14.900740561112	0
0	47907	14.902884221983	1
0	47916	14.902894221983	0
0	48077	15.000730509045	1
0	48090	15.000740509045	0
0	48139	15.001651665527	1
0	48196	15.002633018781	2
0	48269	15.003936036871	1
0	48305	15.004607067904	2
0	48381	15.005830224386	1
0	48433	15.00700357764	0
0	48666	15.301170633162	1
0	48675	15.301180633162	0
0	48827	15.400650628361	1
0	48836	15.400660628361	0
0	48883	15.401651981615	1
0	48959	15.402935238337	0
0	49097	15.500710509045	1
0	49110	15.500720509045	0
0	49157	15.501751665527	1
0	49229	15.503174683617	0
0	49369	15.600690561112	1
0	49380	15.600700561112	0
0	49532	15.700970633162	1
0	49541	15.700980633162	0
0	49588	15.70205181459	1
0	49664	15.703455080914	0
0	49806	15.800970633162	1
0	49815	15.800980633162	0
0	49914	15.802865023523	1
0	49923	15.802875023523	0
0	50088	15.900610676627	1
0	50097	15.900620676627	0
0	50142	15.901511694717	1
0	50224	15.902695047971	0
0	50257	15.90332614329	1
0	50313	15.904327400012	2
0	50385	15.905610418102	1
0	50441	15.907003574584	0
0	50591	16.000930561112	1
0	50602	16.000940561112	0
0	50645	16.001991579202	1
0	50723	16.003394701426	0
0	50861	16.101090561112	1
0	50872	16.101100561112	0
0	51018	16.200610561112	1
0	51029	16.200620561112	0
0	51185	16.300650676627	1
0	51194	16.300660676627	0
0	51295	16.302584903748	1
0	51304	16.302594903748	0
0	51351	16.303626085176	1
0	51427	16.305069341898	0
0	51574	16.400710676627	1
0	51583	16.400720676627	0
0	51630	16.401691833109	1
0	51706	16.403015186363	0
0	51848	16.500730590714	1
0	51857	16.500740590714	0
0	51956	16.502684981075	1
0	51965	16.502694981075	0
0	52164	16.700650509045	1
0	52177	16.700660509045	0
0	52225	16.701591665527	1
0	52281	16.702713018781	2
0	52353	16.703996036871	1
0	52409	16.705369193353	0
0	52605	16.801761128943	1
0	52614	16.801771128943	0
0	52662	16.802662385665	1
0	52739	16.803765542147	0
0	52823	16.805869672564	1
0	52832	16.805879672564	0
0	52999	16.901030590714	1
0	53008	16.901040590714	0
0	53056	16.902011857038	1
0	53112	16.90295301352	2
0	53188	16.904156194948	1
0	53240	16.905029461272	0
0	53387	17.000990676627	1
0	53396	17.001000676627	0
0	53443	17.001991942951	1
0	53519	17.003075296205	0
0	53661	17.100870509045	1
0	53674	17.100880509045	0
0	53773	17.102704169916	1
0	53784	17.102714169916	0
0	53831	17.103645351344	1
0	53905	17.105068473568	0
0	54050	17.200890509045	1
0	54063	17.200900509045	0
0	54110	17.201971765767	1
0	54182	17.203274783857	0
0	54324	17.301230628361	1
0	54333	17.301240628361	0
0	54493	17.400710590714	1
0	54502	17.400720590714	0
0	54551	17.401591943968	1
0	54608	17.40257310045	2
0	54685	17.403696281878	1
0	54715	17.404526761321	2
0	54793	17.405910114575	1
0	54845	17.407163271057	0
0	54991	17.501210561112	1
0	55002	17.501220561112	0
0	55152	17.600750561112	1
0	55163	17.600760561112	0
0	55258	17.602544221983	1
0	55271	17.602554221983	0
0	55424	17.701150633162	1
0	55433	17.701160633162	0
0	55585	17.800670633162	1
0	55594	17.800680633162	0
0	55641	17.801671789644	1
0	55717	17.802955055968	0
0	55859	17.901110676627	1
0	55868	17.901120676627	0
0	55915	17.902011858055	1
0	55991	17.903095211309	0
0	56133	18.000890628361	1
0	56142	18.000900628361	0
0	56187	18.001831750585	1
0	56265	18.002915007307	0
0	56399	18.100690509045	1
0	56412	18.100700509045	0
0	56614	18.300670509045	1
0	56627	18.300680509045	0
0	56678	18.301571690473	1
0	56753	18.302694708563	0
0	56845	18.304438302245	1
0	56854	18.304448302245	0
0	56955	18.30623245673	1
0	56964	18.30624245673	0
0	57011	18.307113809984	1
0	57087	18.308677076308	0
0	57244	18.401070676627	1
0	57253	18.401080676627	0
0	57396	18.404346903748	1
0	57405	18.404356903748	0
0	57562	18.500750561112	1
0	57573	18.500760561112	0
0	57620	18.501811817834	1
0	57694	18.503094940058	0
0	57838	18.600890590714	1
0	57847	18.600900590714	0
0	57890	18.601791608804	1
0	57970	18.603214790232	0
0	58108	18.700630578241	1
0	58117	18.700640578241	0
0	58273	18.800850633162	1
0	58282	18.800860633162	0
0	58330	18.801911789644	1
0	58407	18.803055055968	0
0	58439	18.803726180005	1
0	58515	18.805169336487	0
0	58656	18.900650561112	1
0	58667	18.900660561112	0
0	58813	19.001070561112	1
0	58824	19.001080561112	0
0	58972	19.100890509045	1
0	58985	19.100900509045	0
0	59032	19.101971862299	1
0	59104	19.103174880389	0
0	59254	19.200790633162	1
0	59263	19.200800633162	0
0	59364	19.202564408162	1
0	59373	19.202574408162	0
0	59420	19.203545761416	1
0	59496	19.204729018138	0
0	59643	19.300790590714	1
0	59652	19.300800590714	0
0	59749	19.302644251585	1
0	59760	19.302654251585	0
0	59913	19.400670578241	1
0	59922	19.400680578241	0
0	60074	19.500710578241	1
0	60083	19.500720578241	0
0	60130	19.501711931495	1
0	60206	19.503035087977	0
0	60350	19.600870561112	1
0	60361	19.600880561112	0
0	60409	19.601791817834	1
0	60461	19.602692835924	2
0	60539	19.604035958148	1
0	60593	19.60518921487	0
0	60744	19.700890628361	1
0	60753	19.700900628361	0
0	60801	19.701811894685	1
0	60857	19.702853247939	2
0	60933	19.704256504661	1
0	60985	19.705129770985	0
0	61128	19.801010590714	1
0	61137	19.801020590714	0
0	61335	20.000630578241	1
0	61344	20.000640578241	0
0	61441	20.002684739146	1
0	61454	20.002694739146	0
0	61499	20.00360586137	1
0	61573	20.00480887946	0
0	61724	20.101130628361	1
0	61733	20.101140628361	0
0	61780	20.102031894685	1
0	61856	20.103515151407	0
0	62002	20.200650676627	1
0	62011	20.200660676627	0
0	62059	20.201591942951	1
0	62136	20.202755296205	0
0	62220	20.204279686566	1
0	62229	20.204289686566	0
0	62395	20.300790628361	1
0	62404	20.300800628361	0
0	62452	20.301711981615	1
0	62506	20.302833103839	2
0	62584	20.304136360561	1
0	62636	20.305369713815	0
0	62827	20.500690561112	1
0	62838	20.500700561112	0
0	62882	20.501651579202	1
0	62961	20.502814701426	0
0	63039	20.505235558476	1
0	63111	20.506398576566	0
0	63306	20.700610628361	1
0	63315	20.700620628361	0
0	63362	20.701611809789	1
0	63438	20.703055066511	0
0	63580	20.800670628361	1
0	63589	20.800680628361	0
0	63636	20.801991981615	1
0	63712	20.803095238337	0
0	63858	20.900970578241	1
0	63867	20.900980578241	0
0	63911	20.901871596331	1
0	63971	20.902812862655	2
1	0	0	0
1	0	0	0
1	0	0	0
1	0	0	0
1	0	0	0
1	82	0.100638578241	0
1	117	0.101417576244	224
1	173	0.102226732726	0
1	198	0.102905737149	224
1	240	0.103536879964	472
1	315	0.104596146288	248
1	363	0.105765164378	0
1	400	0.106396141849	248
1	452	0.107557159939	496
1	532	0.108680316421	248
1	584	0.109593582745	0
1	748	0.200610578241	248
1	757	0.200620578241	0
1	896	0.20311199042	0
1	983	0.205331112644	248
1	994	0.205341112644	0
1	1164	0.300890509045	248
1	1177	0.300900509045	0
1	1322	0.303475661088	248
1	1331	0.303485661088	0
1	1430	0.305629815573	248
1	1439	0.305639815573	0
1	1610	0.401110633162	248
1	1619	0.401120633162	0
1	1718	0.402904787647	248
1	1727	0.402914787647	0
1	1895	0.500670509045	248
1	1908	0.500680509045	0
1	1957	0.501671775369	248
1	2014	0.502732931851	496
1	2068	0.503654054075	744
1	2142	0.504917072165	496
1	2198	0.505950338489	248
1	2250	0.507123494971	0
1	2406	0.600650509045	248
1	2419	0.600660509045	0
1	2518	0.602844504606	248
1	2527	0.602854504606	0
1	2693	0.700690578241	248
1	2702	0.700700578241	0
1	2797	0.702704739146	248
1	2810	0.702714739146	0
1	2970	0.800770578241	248
1	2979	0.800780578241	0
1	3022	0.801871596331	248
1	3102	0.803034752813	0
1	3242	0.900690509045	248
1	3255	0.900700509045	0
1	3418	1.000810633162	248
1	3427	1.000820633162	0
1	3473	1.001991755386	248
1	3527	1.002952773476	496
1	3607	1.0040760398	248
1	3657	1.004909162024	0
1	3814	1.100750633162	248
1	3823	1.100760633162	0
1	3871	1.101651789644	248
1	3948	1.102735055968	0
1	4030	1.104459035242	248
1	4041	1.104469035242	0
1	4210	1.200758590714	0
1	4305	1.202147123333	0
1	4403	1.203626902219	248
1	4412	1.203636902219	0
1	4461	1.204628083647	248
1	4519	1.205529240129	496
1	4597	1.206652506453	248
1	4630	1.207423019015	496
1	4708	1.208526200443	248
1	4741	1.209336200443	496
1	4819	1.210419356925	248
1	4853	1.211089794125	496
1	4934	1.212213147379	248
1	5035	1.213937508172	0
1	5125	1.2164006896	248
1	5135	1.2164106896	0
1	5184	1.217341871028	248
1	5244	1.218343224282	496
1	5324	1.21942640571	248
1	5366	1.220177756901	496
1	5425	1.221138938329	744
1	5505	1.222242119757	496
1	5539	1.223013470948	744
1	5596	1.223934824202	992
1	5676	1.225178177456	744
1	5708	1.226128177456	992
1	5787	1.22731153071	744
1	5821	1.22810153071	992
1	5900	1.229244712138	744
1	5955	1.230478065392	496
1	6009	1.231711418646	248
1	6063	1.2328447719	0
1	6212	1.300670509045	248
1	6225	1.300680509045	0
1	6324	1.302312729142	0
1	6360	1.303003699541	248
1	6443	1.304582956263	0
1	6475	1.305292956263	248
1	6531	1.306154212985	496
1	6587	1.307355469707	744
1	6664	1.308578822961	496
1	6717	1.309472079683	248
1	6770	1.310325336405	0
1	6804	1.311015336405	248
1	6884	1.312318593127	0
1	6970	1.314081849849	248
1	6979	1.314091849849	0
1	7082	1.315955106571	248
1	7091	1.315965106571	0
1	7194	1.317948363293	248
1	7203	1.317958363293	0
1	7313	1.320041620015	248
1	7322	1.320051620015	0
1	7427	1.322334876737	248
1	7436	1.322344876737	0
1	7608	1.400810590714	248
1	7617	1.400820590714	0
1	7664	1.401691712938	248
1	7723	1.40269296966	496
1	7775	1.40371398775	744
1	7855	1.405077169178	496
1	7905	1.406350291402	248
1	7959	1.407703548124	0
1	8123	1.500650578241	248
1	8132	1.500660578241	0
1	8180	1.501531700465	248
1	8240	1.502832881893	496
1	8318	1.503976038375	248
1	8413	1.505460165022	0
1	8501	1.507244295439	248
1	8510	1.507254295439	0
1	8605	1.509478515536	248
1	8618	1.509488515536	0
1	8796	1.600890578241	248
1	8805	1.600900578241	0
1	8853	1.601831931495	248
1	8930	1.602995087977	0
1	8962	1.60368608598	248
1	9038	1.605189439234	0
1	9185	1.700690578241	248
1	9194	1.700700578241	0
1	9239	1.701671700465	248
1	9317	1.703054856947	0
1	9459	1.800770676627	248
1	9468	1.800780676627	0
1	9567	1.802504903748	248
1	9576	1.802514903748	0
1	9737	1.900610628361	248
1	9746	1.900620628361	0
1	9847	1.902604403361	248
1	9856	1.902614403361	0
1	9995	1.906240398922	248
1	10008	1.906250398922	0
1	10176	2.000770509045	248
1	10189	2.000780509045	0
1	10238	2.001851862299	248
1	10312	2.002954880389	0
1	10349	2.00362585786	248
1	10403	2.004566980084	496
1	10481	2.006090333338	248
1	10533	2.007383599662	0
1	10689	2.100650590714	248
1	10698	2.100660590714	0
1	10746	2.101531857038	248
1	10823	2.102615038466	0
1	10907	2.104559192951	248
1	10916	2.104569192951	0
1	11074	2.200930633162	248
1	11083	2.200940633162	0
1	11239	2.300770590714	248
1	11248	2.300780590714	0
1	11349	2.302665123333	248
1	11358	2.302675123333	0
1	11401	2.303766141423	248
1	11481	2.305109494677	0
1	11632	2.400670628361	248
1	11641	2.400680628361	0
1	11742	2.402684403361	248
1	11751	2.402694403361	0
1	11798	2.403625756615	248
1	11874	2.405189022939	0
1	12025	2.500610590714	248
1	12034	2.500620590714	0
1	12078	2.501531608804	248
1	12136	2.502412731028	496
1	12214	2.503655912456	248
1	12262	2.504688930546	0
1	12465	2.601661540078	248
1	12474	2.601671540078	0
1	12523	2.6025827968	248
1	12580	2.603603953282	496
1	12657	2.60476713471	248
1	12710	2.606060391432	0
1	12738	2.606991354807	248
1	12818	2.608314511289	0
1	12975	2.700890590714	248
1	12984	2.700900590714	0
1	13028	2.701791608804	248
1	13088	2.702832875128	496
1	13164	2.704236056556	248
1	13212	2.705549074646	0
1	13363	2.801030676627	248
1	13372	2.801040676627	0
1	13415	2.802051694717	248
1	13495	2.803335047971	0
1	13641	2.900610628361	248
1	13650	2.900620628361	0
1	13694	2.901551646451	248
1	13754	2.902492827879	496
1	13830	2.903936084601	248
1	13878	2.905289102691	0
1	14033	3.000730578241	248
1	14042	3.000740578241	0
1	14143	3.002704335545	248
1	14152	3.002714335545	0
1	14249	3.004578671623	248
1	14260	3.004588671623	0
1	14426	3.100790628361	248
1	14435	3.100800628361	0
1	14483	3.101771784843	248
1	14539	3.102812966271	496
1	14616	3.103936222993	248
1	14668	3.104909379475	0
1	14819	3.200730578241	248
1	14828	3.200740578241	0
1	14876	3.201691844565	248
1	14932	3.202633025993	496
1	15008	3.203816182475	248
1	15060	3.205209448799	0
1	15203	3.300630676627	248
1	15212	3.300640676627	0
1	15362	3.400850561112	248
1	15373	3.400860561112	0
1	15420	3.401911817834	248
1	15494	3.403254940058	0
1	15634	3.501090578241	248
1	15643	3.501100578241	0
1	15811	3.600670633162	248
1	15820	3.600680633162	0
1	15917	3.602282612436	248
1	15976	3.603183869158	496
1	16034	3.604105222412	744
1	16091	3.60502640384	992
1	16168	3.606369670164	744
1	16221	3.607762826646	496
1	16274	3.608676083368	248
1	16304	3.609407162724	496
1	16383	3.610810515978	248
1	16438	3.611843697406	0
1	16606	3.700770633162	248
1	16615	3.700780633162	0
1	16660	3.701671651252	248
1	16721	3.702553004506	496
1	16775	3.70359412673	744
1	16853	3.704857393054	496
1	16901	3.705890411144	248
1	16957	3.706803764398	0
1	17107	3.800910561112	248
1	17118	3.800920561112	0
1	17217	3.802844877972	248
1	17226	3.802854877972	0
1	17379	3.901150633162	248
1	17388	3.901160633162	0
1	17538	4.001070561112	248
1	17549	4.001080561112	0
1	17596	4.001971817834	248
1	17670	4.003414940058	0
1	17822	4.100670509045	248
1	17835	4.100680509045	0
1	17940	4.102564558168	248
1	17949	4.102574558168	0
1	17998	4.103545911422	248
1	18098	4.105197668726	496
1	18198	4.107608825208	744
1	18274	4.108992006636	496
1	18326	4.10986535989	248
1	18380	4.110958616612	0
1	18535	4.200850509045	248
1	18548	4.200860509045	0
1	18647	4.202644504606	248
1	18656	4.202654504606	0
1	18809	4.300790676627	248
1	18818	4.300800676627	0
1	18968	4.400870561112	248
1	18979	4.400880561112	0
1	19078	4.40282489719	248
1	19087	4.40283489719	0
1	19246	4.500630561112	248
1	19257	4.500640561112	0
1	19358	4.502704540386	248
1	19367	4.502714540386	0
1	19466	4.504538134068	248
1	19475	4.504548134068	0
1	19641	4.600630633162	248
1	19650	4.600640633162	0
1	19698	4.601571889884	248
1	19775	4.602715156208	0
1	19807	4.603626280245	248
1	19883	4.605009536967	0
1	20026	4.700610633162	248
1	20035	4.700620633162	0
1	20187	4.800650676627	248
1	20196	4.800660676627	0
1	20243	4.801571833109	248
1	20319	4.803175186363	0
1	20453	4.901210509045	248
1	20466	4.901220509045	0
1	20614	5.001210578241	248
1	20623	5.001220578241	0
1	20775	5.100630628361	248
1	20784	5.100640628361	0
1	20883	5.102864855482	248
1	20892	5.102874855482	0
1	21049	5.200670676627	248
1	21058	5.200680676627	0
1	21103	5.201951798851	248
1	21181	5.203135152105	0
1	21331	5.300690676627	248
1	21340	5.300700676627	0
1	21441	5.302604993487	248
1	21452	5.302614993487	0
1	21500	5.303546174915	248
1	21575	5.304669297139	0
1	21605	5.305319835786	248
1	21685	5.306903017214	0
1	21841	5.400950509045	248
1	21854	5.400960509045	0
1	21945	5.402662884328	248
1	22004	5.40354414105	496
1	22060	5.404725407374	744
1	22132	5.405808425464	496
1	22186	5.407201547688	248
1	22240	5.40841480441	0
1	22394	5.500650578241	248
1	22403	5.500660578241	0
1	22450	5.501571834963	248
1	22526	5.502674991445	0
1	22664	5.600850628361	248
1	22673	5.600860628361	0
1	22825	5.700650676627	248
1	22834	5.700660676627	0
1	22933	5.702865209246	248
1	22942	5.702875209246	0
1	23146	5.801641757199	248
1	23155	5.801651757199	0
1	23203	5.802723023523	248
1	23259	5.803804180005	496
1	23335	5.805027361433	248
1	23387	5.806180627757	0
1	23536	5.900750633162	248
1	23545	5.900760633162	0
1	23588	5.901831651252	248
1	23668	5.903234917576	0
1	23816	6.000790561112	248
1	23827	6.000800561112	0
1	23876	6.001811817834	248
1	23933	6.002712974316	496
1	24008	6.00385609654	248
1	24038	6.004586635187	496
1	24118	6.005949891909	248
1	24170	6.006943048391	0
1	24361	6.200970676627	248
1	24370	6.200980676627	0
1	24518	6.301150590714	248
1	24527	6.301160590714	0
1	24679	6.400830578241	248
1	24688	6.400840578241	0
1	24831	6.404926171923	248
1	24840	6.404936171923	0
1	25003	6.500810509045	248
1	25016	6.500820509045	0
1	25117	6.502604169916	248
1	25128	6.502614169916	0
1	25176	6.503585326398	248
1	25232	6.50462658312	496
1	25306	6.505989705344	248
1	25360	6.507282861826	0
1	25516	6.600670676627	248
1	25525	6.600680676627	0
1	25626	6.602664455513	248
1	25635	6.602674455513	0
1	25682	6.603765636941	248
1	25758	6.605068903265	0
1	25905	6.701150676627	248
1	25914	6.701160676627	0
1	25961	6.702051858055	248
1	26037	6.703355211309	0
1	26175	6.800610578241	248
1	26184	6.800620578241	0
1	26344	6.900750628361	248
1	26353	6.900760628361	0
1	26402	6.901631784843	248
1	26455	6.902592802933	496
1	26513	6.903653925157	744
1	26591	6.904917181879	496
1	26643	6.906070338361	248
1	26691	6.907363356451	0
1	26859	7.000610578241	248
1	26868	7.000620578241	0
1	26914	7.001551596331	248
1	26976	7.002552853053	496
1	27033	7.003654119377	744
1	27110	7.004757275859	496
1	27159	7.005570293949	248
1	27193	7.00624093673	496
1	27271	7.007444193452	248
1	27323	7.008537459776	0
1	27484	7.100970628361	248
1	27493	7.100980628361	0
1	27541	7.101871894685	248
1	27618	7.102975151407	0
1	27650	7.103706025102	248
1	27726	7.105089291426	0
1	27869	7.201130628361	248
1	27878	7.201140628361	0
1	28072	7.400750676627	248
1	28081	7.400760676627	0
1	28128	7.401631833109	248
1	28204	7.403255186363	0
1	28388	7.600610628361	248
1	28397	7.600620628361	0
1	28444	7.601571809789	248
1	28520	7.602695066511	0
1	28660	7.700910561112	248
1	28671	7.700920561112	0
1	28714	7.701891579202	248
1	28792	7.703054701426	0
1	28936	7.800750676627	248
1	28945	7.800760676627	0
1	29044	7.802844455513	248
1	29053	7.802854455513	0
1	29210	7.900810676627	248
1	29219	7.900820676627	0
1	29266	7.901871833109	248
1	29342	7.903015186363	0
1	29480	8.001150590714	248
1	29489	8.001160590714	0
1	29641	8.100670628361	248
1	29650	8.100680628361	0
1	29695	8.101651750585	248
1	29773	8.102955007307	0
1	29919	8.200650633162	248
1	29928	8.200660633162	0
1	29974	8.201851755386	248
1	30053	8.20299502171	0
1	30081	8.203745750947	248
1	30159	8.205188873171	0
1	30308	8.301070633162	248
1	30317	8.301080633162	0
1	30364	8.302031789644	248
1	30440	8.303555055968	0
1	30578	8.400870578241	248
1	30587	8.400880578241	0
1	30739	8.500630590714	248
1	30748	8.500640590714	0
1	30795	8.501591847436	248
1	30871	8.502755028864	0
1	31017	8.600930676627	248
1	31026	8.600940676627	0
1	31070	8.602011694717	248
1	31130	8.602932951439	496
1	31206	8.604036304693	248
1	31254	8.605369322783	0
1	31443	8.800670628361	248
1	31452	8.800680628361	0
1	31612	8.900790628361	248
1	31621	8.900800628361	0
1	31670	8.901671784843	248
1	31725	8.902572907067	496
1	31783	8.903534088495	744
1	31859	8.904697345217	496
1	31911	8.906010501699	248
1	31961	8.906943623923	0
1	32123	9.000750590714	248
1	32132	9.000760590714	0
1	32181	9.001631943968	248
1	32238	9.002593210292	496
1	32315	9.00367639172	248
1	32347	9.004486803974	496
1	32423	9.005670157228	248
1	32475	9.006963423552	0
1	32631	9.100910628361	248
1	32640	9.100920628361	0
1	32741	9.102764855482	248
1	32750	9.102774855482	0
1	32793	9.103645873572	248
1	32873	9.104749226826	0
1	33016	9.200950628361	248
1	33025	9.200960628361	0
1	33174	9.301010578241	248
1	33183	9.301020578241	0
1	33335	9.400650633162	248
1	33344	9.400660633162	0
1	33441	9.402845008445	248
1	33452	9.402855008445	0
1	33613	9.500870578241	248
1	33622	9.500880578241	0
1	33670	9.501831844565	248
1	33722	9.502792862655	496
1	33802	9.504136019137	248
1	33854	9.505029285461	0
1	34005	9.600850578241	248
1	34014	9.600860578241	0
1	34062	9.601811834963	248
1	34114	9.602792853053	496
1	34194	9.604236009535	248
1	34246	9.605489266257	0
1	34389	9.701010590714	248
1	34398	9.701020590714	0
1	34550	9.800710676627	248
1	34559	9.800720676627	0
1	34604	9.801971798851	248
1	34682	9.803095152105	0
1	34818	9.901190561112	248
1	34829	9.901200561112	0
1	34977	10.000990578241	248
1	34986	10.001000578241	0
1	35138	10.100990628361	248
1	35147	10.101000628361	0
1	35194	10.101931809789	248
1	35270	10.103355066511	0
1	35412	10.200750590714	248
1	35421	10.200760590714	0
1	35468	10.201651857038	248
1	35544	10.203015038466	0
1	35682	10.300610509045	248
1	35695	10.300620509045	0
1	35794	10.302724255629	248
1	35803	10.302734255629	0
1	36006	10.500690578241	248
1	36015	10.500700578241	0
1	36063	10.501811834963	248
1	36117	10.502732957187	496
1	36195	10.503896113669	248
1	36247	10.505029370391	0
1	36394	10.600810628361	248
1	36403	10.600820628361	0
1	36502	10.602884403361	248
1	36511	10.602894403361	0
1	36712	10.701920676627	248
1	36721	10.701930676627	0
1	36820	10.704234455513	248
1	36829	10.704244455513	0
1	36979	10.800870509045	248
1	36992	10.800880509045	0
1	37152	10.900830578241	248
1	37161	10.900840578241	0
1	37210	10.902011844565	248
1	37267	10.902933025993	496
1	37321	10.903814148217	744
1	37399	10.905097304699	496
1	37451	10.906310571023	248
1	37503	10.907243752451	0
1	37653	11.001150561112	248
1	37664	11.001160561112	0
1	37711	11.002031717594	248
1	37785	11.003374839818	0
1	37979	11.200850633162	248
1	37988	11.200860633162	0
1	38033	11.201811651252	248
1	38094	11.202692807734	496
1	38150	11.203574160988	744
1	38226	11.204697427312	496
1	38274	11.205550445402	248
1	38330	11.206383601884	0
1	38486	11.300670590714	248
1	38495	11.300680590714	0
1	38543	11.301551847436	248
1	38599	11.30257320069	496
1	38675	11.303976382118	248
1	38727	11.30480963884	0
1	38870	11.400610590714	248
1	38879	11.400620590714	0
1	39031	11.500690509045	248
1	39044	11.500700509045	0
1	39145	11.50276466995	248
1	39154	11.50277466995	0
1	39201	11.503665926672	248
1	39277	11.504789083154	0
1	39468	11.700650561112	248
1	39479	11.700660561112	0
1	39527	11.701531827436	248
1	39602	11.70273494966	0
1	39632	11.703645488307	248
1	39712	11.704968754631	0
1	39859	11.800690628361	248
1	39868	11.800700628361	0
1	39915	11.802031981615	248
1	39991	11.803135238337	0
1	40129	11.901090676627	248
1	40138	11.901100676627	0
1	40286	12.000990578241	248
1	40295	12.001000578241	0
1	40449	12.100630561112	248
1	40460	12.100640561112	0
1	40508	12.101571827436	248
1	40583	12.10269494966	0
1	40617	12.103565488307	248
1	40693	12.104948754631	0
1	40848	12.200670509045	248
1	40861	12.200680509045	0
1	40909	12.201611631269	248
1	40969	12.202492984523	496
1	41026	12.203594241245	744
1	41082	12.204495507569	992
1	41154	12.205598525659	744
1	41208	12.206951647883	496
1	41262	12.208005001137	248
1	41314	12.208878257859	0
1	41468	12.301010628361	248
1	41477	12.301020628361	0
1	41629	12.400990676627	248
1	41638	12.401000676627	0
1	41737	12.4029051252	248
1	41746	12.4029151252	0
1	41903	12.500830578241	248
1	41912	12.500840578241	0
1	41959	12.502011759669	248
1	42035	12.503354916151	0
1	42173	12.600990590714	248
1	42182	12.601000590714	0
1	42326	12.701030509045	248
1	42339	12.701040509045	0
1	42491	12.800770628361	248
1	42500	12.800780628361	0
[...]
137	13824	2.90393545624	0
137	14122	3.002143707184	1
137	14123	3.002143707184	2
137	14131	3.002703707184	1
137	14131	3.002703707184	0
137	14205	3.003666963906	1
137	14206	3.003666963906	2
137	14214	3.003906963906	1
137	14214	3.003906963906	0
137	14405	3.10023	1
137	14406	3.10023	2
137	14414	3.10079	1
137	14414	3.10079	0
137	14601	3.103695594632	1
137	14602	3.103695594632	2
137	14610	3.103935594632	1
137	14610	3.103935594632	0
137	15399	3.401351189473	1
137	15400	3.401351189473	2
137	15408	3.401911189473	1
137	15408	3.401911189473	0
137	15533	3.404407568419	1
137	15534	3.404407568419	2
137	15542	3.404647568419	1
137	15542	3.404647568419	0
137	15955	3.602623240797	1
137	15956	3.602623240797	2
137	15964	3.603183240797	1
137	15964	3.603183240797	0
137	16259	3.608435455007	1
137	16260	3.608435455007	2
137	16268	3.608675455007	1
137	16268	3.608675455007	0
137	17575	4.001411189473	1
137	17576	4.001411189473	2
137	17584	4.001971189473	1
137	17584	4.001971189473	0
137	17709	4.004367568419	1
137	17710	4.004367568419	2
137	17718	4.004607568419	1
137	17718	4.004607568419	0
137	18075	4.104637040365	1
137	18076	4.104637040365	2
137	18086	4.105197040365	1
137	18086	4.105197040365	0
137	18364	4.110717988251	1
137	18365	4.110717988251	2
137	18374	4.110957988251	1
137	18374	4.110957988251	0
137	19057	4.402264268829	1
137	19058	4.402264268829	2
137	19066	4.402824268829	1
137	19066	4.402824268829	0
137	19139	4.403787525551	1
137	19140	4.403787525551	2
137	19148	4.404027525551	1
137	19148	4.404027525551	0
137	19677	4.601011261523	1
137	19678	4.601011261523	2
137	19686	4.601571261523	1
137	19686	4.601571261523	0
137	19868	4.604768908606	1
137	19869	4.604768908606	2
137	19877	4.605008908606	1
137	19877	4.605008908606	0
137	20754	5.10007	1
137	20755	5.10007	2
137	20763	5.10063	1
137	20763	5.10063	0
137	20837	5.101793256722	1
137	20838	5.101793256722	2
137	20846	5.102033256722	1
137	20846	5.102033256722	0
137	21983	5.402983512689	1
137	21984	5.402983512689	2
137	21992	5.403543512689	1
137	21992	5.403543512689	0
137	22225	5.408174176049	1
137	22226	5.408174176049	2
137	22234	5.408414176049	1
137	22234	5.408414176049	0
137	22429	5.501011206602	1
137	22430	5.501011206602	2
137	22438	5.501571206602	1
137	22438	5.501571206602	0
137	22563	5.503487619806	1
137	22564	5.503487619806	2
137	22572	5.503727619806	1
137	22572	5.503727619806	0
137	22643	5.60029	1
137	22644	5.60029	2
137	22652	5.60085	1
137	22652	5.60085	0
137	22725	5.602093256722	1
137	22726	5.602093256722	2
137	22734	5.602333256722	1
137	22734	5.602333256722	0
137	23855	6.001251189473	1
137	23856	6.001251189473	2
137	23864	6.001811189473	1
137	23864	6.001811189473	0
137	24103	6.005709263548	1
137	24104	6.005709263548	2
137	24112	6.005949263548	1
137	24112	6.005949263548	0
137	25211	6.504065954759	1
137	25212	6.504065954759	2
137	25220	6.504625954759	1
137	25220	6.504625954759	0
137	25397	6.508255490187	1
137	25398	6.508255490187	2
137	25406	6.508495490187	1
137	25406	6.508495490187	0
137	26323	6.90019	1
137	26324	6.90019	2
137	26332	6.90075	1
137	26332	6.90075	0
137	26576	6.904676553518	1
137	26577	6.904676553518	2
137	26585	6.904916553518	1
137	26585	6.904916553518	0
137	26955	7.001992224692	1
137	26956	7.001992224692	2
137	26964	7.002552224692	1
137	26964	7.002552224692	0
137	27256	7.007203565091	1
137	27257	7.007203565091	2
137	27265	7.007443565091	1
137	27265	7.007443565091	0
137	27463	7.10041	1
137	27464	7.10041	2
137	27472	7.10097	1
137	27472	7.10097	0
137	27603	7.102734523046	1
137	27604	7.102734523046	2
137	27612	7.102974523046	1
137	27612	7.102974523046	0
137	27848	7.20057	1
137	27849	7.20057	2
137	27857	7.20113	1
137	27857	7.20113	0
137	27930	7.202333256722	1
137	27931	7.202333256722	2
137	27939	7.202573256722	1
137	27939	7.202573256722	0
137	28367	7.60005	1
137	28368	7.60005	2
137	28376	7.60061	1
137	28376	7.60061	0
137	28505	7.60245443815	1
137	28506	7.60245443815	2
137	28514	7.60269443815	1
137	28514	7.60269443815	0
137	29620	8.10011	1
137	29621	8.10011	2
137	29629	8.10067	1
137	29629	8.10067	0
137	29758	8.102714378946	1
137	29759	8.102714378946	2
137	29767	8.102954378946	1
137	29767	8.102954378946	0
137	30774	8.501031219075	1
137	30775	8.501031219075	2
137	30783	8.501591219075	1
137	30783	8.501591219075	0
137	30908	8.503747657225	1
137	30909	8.503747657225	2
137	30917	8.503987657225	1
137	30917	8.503987657225	0
137	31109	8.602372323078	1
137	31110	8.602372323078	2
137	31118	8.602932323078	1
137	31118	8.602932323078	0
137	31295	8.606501951144	1
137	31296	8.606501951144	2
137	31304	8.606741951144	1
137	31304	8.606741951144	0
137	31422	8.80011	1
137	31423	8.80011	2
137	31431	8.80067	1
137	31431	8.80067	0
137	31504	8.802013256722	1
137	31505	8.802013256722	2
137	31513	8.802253256722	1
137	31513	8.802253256722	0
137	31591	8.90023	1
137	31592	8.90023	2
137	31600	8.90079	1
137	31600	8.90079	0
137	31844	8.904456716856	1
137	31845	8.904456716856	2
137	31853	8.904696716856	1
137	31853	8.904696716856	0
137	32610	9.10035	1
137	32611	9.10035	2
137	32619	9.10091	1
137	32619	9.10091	0
137	32694	9.101893256722	1
137	32695	9.101893256722	2
137	32703	9.102133256722	1
137	32703	9.102133256722	0
137	32995	9.20039	1
137	32996	9.20039	2
137	33004	9.20095	1
137	33004	9.20095	0
137	33078	9.201913256722	1
137	33079	9.201913256722	2
137	33087	9.202153256722	1
137	33087	9.202153256722	0
137	34041	9.601251206602	1
137	34042	9.601251206602	2
137	34050	9.601811206602	1
137	34050	9.601811206602	0
137	34231	9.605248637896	1
137	34232	9.605248637896	2
137	34240	9.605488637896	1
137	34240	9.605488637896	0
137	35117	10.10043	1
137	35118	10.10043	2
137	35126	10.10099	1
137	35126	10.10099	0
137	35255	10.10311443815	1
137	35256	10.10311443815	2
137	35264	10.10335443815	1
137	35264	10.10335443815	0
137	36042	10.501251206602	1
137	36043	10.501251206602	2
137	36051	10.501811206602	1
137	36051	10.501811206602	0
137	36232	10.50478874203	1
137	36233	10.50478874203	2
137	36241	10.50502874203	1
137	36241	10.50502874203	0
137	36373	10.60025	1
137	36374	10.60025	2
137	36382	10.60081	1
137	36382	10.60081	0
137	36456	10.601653256722	1
137	36457	10.601653256722	2
137	36465	10.601893256722	1
137	36465	10.601893256722	0
137	38522	11.300991219075	1
137	38523	11.300991219075	2
137	38531	11.301551219075	1
137	38531	11.301551219075	0
137	38712	11.304569010479	1
137	38713	11.304569010479	2
137	38721	11.304809010479	1
137	38721	11.304809010479	0
137	39180	11.503105298311	1
137	39181	11.503105298311	2
137	39189	11.503665298311	1
137	39189	11.503665298311	0
137	39314	11.505481711515	1
137	39315	11.505481711515	2
137	39323	11.505721711515	1
137	39323	11.505721711515	0
137	39838	11.80013	1
137	39839	11.80013	2
137	39847	11.80069	1
137	39847	11.80069	0
137	39976	11.802894609976	1
137	39977	11.802894609976	2
137	39985	11.803134609976	1
137	39985	11.803134609976	0
137	41005	12.203033612884	1
137	41006	12.203033612884	2
137	41014	12.203593612884	1
137	41014	12.203593612884	0
137	41299	12.208637629498	1
137	41300	12.208637629498	2
137	41308	12.208877629498	1
137	41308	12.208877629498	0
137	41446	12.30045	1
137	41447	12.30045	2
137	41455	12.30101	1
137	41455	12.30101	0
137	41529	12.301973256722	1
137	41530	12.301973256722	2
137	41538	12.302213256722	1
137	41538	12.302213256722	0
137	42470	12.80021	1
137	42471	12.80021	2
137	42479	12.80077	1
137	42479	12.80077	0
137	42553	12.801813256722	1
137	42554	12.801813256722	2
137	42562	12.802053256722	1
137	42562	12.802053256722	0
137	43440	13.301291261523	1
137	43441	13.301291261523	2
137	43449	13.301851261523	1
137	43449	13.301851261523	0
137	43688	13.30563026186	1
137	43689	13.30563026186	2
137	43697	13.30587026186	1
137	43697	13.30587026186	0
137	44653	13.703125751694	1
137	44654	13.703125751694	2
137	44662	13.703685751694	1
137	44662	13.703685751694	0
137	44844	13.706243456989	1
137	44845	13.706243456989	2
137	44853	13.706483456989	1
137	44853	13.706483456989	0
137	46083	14.20023	1
137	46084	14.20023	2
137	46092	14.20079	1
137	46092	14.20079	0
137	46165	14.202133256722	1
137	46166	14.202133256722	2
137	46174	14.202373256722	1
137	46174	14.202373256722	0
137	47133	14.601471137406	1
137	47134	14.601471137406	2
137	47142	14.602031137406	1
137	47142	14.602031137406	0
137	47323	14.604948678542	1
137	47324	14.604948678542	2
137	47332	14.605188678542	1
137	47332	14.605188678542	0
137	47460	14.70025	1
137	47461	14.70025	2
137	47469	14.70081	1
137	47469	14.70081	0
137	47542	14.701853256722	1
137	47543	14.701853256722	2
137	47551	14.702093256722	1
137	47551	14.702093256722	0
137	48806	15.40009	1
137	48807	15.40009	2
137	48815	15.40065	1
137	48815	15.40065	0
137	48944	15.402694609976	1
137	48945	15.402694609976	2
137	48953	15.402934609976	1
137	48953	15.402934609976	0
137	50292	15.903766771651	1
137	50293	15.903766771651	2
137	50301	15.904326771651	1
137	50301	15.904326771651	0
137	50478	15.907776202945	1
137	50479	15.907776202945	2
137	50487	15.908016202945	1
137	50487	15.908016202945	0
137	51274	16.302024275387	1
137	51275	16.302024275387	2
137	51283	16.302584275387	1
137	51283	16.302584275387	0
137	51412	16.304828713537	1
137	51413	16.304828713537	2
137	51421	16.305068713537	1
137	51421	16.305068713537	0
137	52540	16.80015	1
137	52542	16.80015	2
137	52558	16.80071	1
137	52558	16.80071	0
137	52641	16.802101757304	1
137	52642	16.802101757304	2
137	52650	16.802661757304	1
137	52650	16.802661757304	0
137	52777	16.804778170508	1
137	52778	16.804778170508	2
137	52786	16.805018170508	1
137	52786	16.805018170508	0
137	54089	17.201411137406	1
137	54090	17.201411137406	2
137	54098	17.201971137406	1
137	54098	17.201971137406	0
137	54223	17.203947412218	1
137	54224	17.203947412218	2
137	54232	17.204187412218	1
137	54232	17.204187412218	0
137	54303	17.30067	1
137	54304	17.30067	2
137	54312	17.30123	1
137	54312	17.30123	0
137	54385	17.302073256722	1
137	54386	17.302073256722	2
137	54394	17.302313256722	1
137	54394	17.302313256722	0
137	56112	18.00033	1
137	56113	18.00033	2
137	56121	18.00089	1
137	56121	18.00089	0
137	56250	18.002674378946	1
137	56251	18.002674378946	2
137	56259	18.002914378946	1
137	56259	18.002914378946	0
137	57285	18.401391304988	1
137	57287	18.401391304988	2
137	57311	18.401951304988	1
137	57311	18.401951304988	0
137	57375	18.403786275387	1
137	57376	18.403786275387	2
137	57384	18.404346275387	1
137	57384	18.404346275387	0
137	57457	18.405449532109	1
137	57458	18.405449532109	2
137	57466	18.405689532109	1
137	57466	18.405689532109	0
137	57599	18.501251189473	1
137	57600	18.501251189473	2
137	57608	18.501811189473	1
137	57608	18.501811189473	0
137	57733	18.503887568419	1
137	57734	18.503887568419	2
137	57742	18.504127568419	1
137	57742	18.504127568419	0
137	59343	19.202003779801	1
137	59344	19.202003779801	2
137	59352	19.202563779801	1
137	59352	19.202563779801	0
137	59481	19.204488389777	1
137	59482	19.204488389777	2
137	59490	19.204728389777	1
137	59490	19.204728389777	0
137	60388	19.601231189473	1
137	60389	19.601231189473	2
137	60397	19.601791189473	1
137	60397	19.601791189473	0
137	60578	19.604948586509	1
137	60579	19.604948586509	2
137	60587	19.605188586509	1
137	60587	19.605188586509	0
137	60723	19.70033	1
137	60724	19.70033	2
137	60732	19.70089	1
137	60732	19.70089	0
137	60918	19.7040158763	1
137	60919	19.7040158763	2
137	60927	19.7042558763	1
137	60927	19.7042558763	0
137	61703	20.10057	1
137	61704	20.10057	2
137	61712	20.10113	1
137	61712	20.10113	0
137	61841	20.103274523046	1
137	61842	20.103274523046	2
137	61850	20.103514523046	1
137	61850	20.103514523046	0
137	62374	20.30023	1
137	62375	20.30023	2
137	62383	20.30079	1
137	62383	20.30079	0
137	62569	20.3038957322	1
137	62570	20.3038957322	2
137	62578	20.3041357322	1
137	62578	20.3041357322	0
137	63285	20.70005	1
137	63286	20.70005	2
137	63294	20.70061	1
137	63294	20.70061	0
137	63423	20.70281443815	1
137	63424	20.70281443815	2
137	63432	20.70305443815	1
137	63432	20.70305443815	0
137	63559	20.80011	1
137	63560	20.80011	2
137	63568	20.80067	1
137	63568	20.80067	0
137	63697	20.802854609976	1
137	63698	20.802854609976	2
137	63706	20.803094609976	1
137	63706	20.803094609976	0
138	1230	0.301780059539	49
138	8359	1.504606932969	58
138	9913	1.903537079988	52
138	12427	2.600870560912	58
138	15881	3.601543309789	52
138	18065	4.104378588049	52
138	18164	4.106190345353	52
138	21913	5.401783185672	52
138	23105	5.800750469097	58
138	24745	6.401983254868	52
138	52572	16.800710922133	58
138	57310	18.401903353254	52
138	63005	20.503617378053	52
139	1235	0.301851512013	58
139	8357	1.504606922178	58
139	9907	1.903536994075	52
139	12421	2.600870424727	58
139	15875	3.601543223876	52
139	18059	4.104378502136	52
139	18158	4.10619025944	52
139	21908	5.401783099759	52
139	23103	5.800750424727	58
139	36683	10.700691166485	58
139	57305	18.401903267341	52
139	62999	20.50361729214	52
140	4685	1.208275609729	11
140	5011	1.213686917458	11
140	5066	1.214560098886	11
140	5300	1.219175814996	11
140	5481	1.221991529043	11
140	5876	1.228994121424	11
140	7832	1.404826578464	11
140	8446	1.506082755736	11
140	10800	2.102364447752	11
140	11294	2.301743181428	11
140	12191	2.503405321742	11
140	12634	2.604516543996	11
140	13141	2.703985465842	11
140	13911	2.906351693405	11
140	14697	3.105911970189	11
140	15089	3.206272039513	11
140	16415	3.611593106692	11
140	18251	4.108741415922	11
140	19519	4.505390724782	11
140	19912	4.605652127681	11
140	21662	5.3066524265	11
140	22986	5.70421779996	11
140	23312	5.804776770719	11
140	24571	6.302143181428	11
140	24884	6.405738762637	11
140	25787	6.606171493979	11
140	26066	6.704377802023	11
140	27755	7.10571188214	11
140	28549	7.603557657225	11
140	29533	8.002343181428	11
140	30848	8.50250443815	11
140	31992	8.907626214637	11
140	32292	9.003425801006	11
140	34442	9.701843181428	11
140	35299	10.104357657225	11
140	35521	10.202764447752	11
140	37480	10.906993161737	11
140	38652	11.303725791404	11
140	38923	11.401563181428	11
140	40722	12.106111345345	11
140	42064	12.504097506865	11
140	42226	12.601943181428	11
140	43784	13.307626834189	11
140	44561	13.701843181428	11
140	45181	13.803865656906	11
140	46866	14.505359913043	11
140	47960	14.904116812697	11
140	48462	15.007706168354	11
140	49693	15.704297671628	11
140	49967	15.803917614237	11
140	51456	16.305911932612	11
140	51902	16.501663181428	11
140	52876	16.806942263278	11
140	53165	16.903905604234	11
140	53936	17.105951064282	11
140	54662	17.403445691164	11
140	56020	17.904237802023	11
140	56789	18.303417299277	11
140	57947	18.602964199518	11
140	58544	18.805731927201	11
140	59697	19.301683181428	11
140	61181	19.802023181428	11
140	62273	20.20549227728	11
140	63467	20.703637657225	11
141	4916	1.211962470752	11
141	5659	1.224927500829	11
141	5770	1.227060854083	11
141	5937	1.230227388765	11
141	5992	1.231460742019	11
141	6046	1.232594095273	11
141	6100	1.233747448527	11
141	6647	1.308328146334	11
141	9021	1.604938762607	11
141	9519	1.801623353254	11
141	10464	2.005839656711	11
141	11464	2.30485881805	11
141	11909	2.406031699566	11
141	13478	2.803084371344	11
141	15262	3.302063353254	11
141	16365	3.610559839351	11
141	16940	3.706553087771	11
141	17276	3.803697554599	11
141	18309	4.109614683263	11
141	18868	4.301803353254	11
141	20302	4.802924509736	11
141	20942	5.103997532109	11
141	21164	5.202884475478	11
141	21393	5.301563353254	11
141	22885	5.701763353254	11
141	24420	6.201783353254	11
141	25577	6.601643353254	11
141	26020	6.703104534682	11
141	28187	7.403004509736	11
141	28996	7.801823353254	11
141	29325	7.902764509736	11
141	31189	8.603785628066	11
141	32406	9.005419480601	11
141	32856	9.104498550199	11
141	34665	9.802844475478	11
141	35853	10.304016932256	11
141	36772	10.703033353254	11
141	38365	11.207166278511	11
141	38762	11.305712315467	11
141	40026	11.803697914964	11
141	40188	11.902163353254	11
141	41245	12.20775432451	11
141	41689	12.401803353254	11
141	42658	12.803937532109	11
141	43738	13.306433566848	11
141	44734	13.704519056682	11
141	45291	13.805752046471	11
141	46924	14.506453180384	11
141	48416	15.006752901013	11
141	48994	15.404057914964	11
141	50207	15.902444371344	11
141	51246	16.301523353254	11
141	51689	16.402764509736	11
141	52444	16.70605186998	11
141	53502	17.002824619578	11
141	54776	17.405659437948	11
141	55974	17.902844534682	11
141	57122	18.309579752935	11
141	57348	18.403125353254	11
141	59143	19.103957557016	11
141	59531	19.205731694765	11
141	60241	19.503857764604	11
141	61020	19.705892447612	11
141	62119	20.202504619578	11
141	62619	20.305119037188	11
141	63747	20.804017914964	11
142	6696	1.309221451322	11
142	6749	1.310074708044	11
142	6862	1.312067964766	11
142	6916	1.312941221488	11
142	7028	1.31493447821	11
142	7140	1.317027734932	11
142	7252	1.318900991654	11
142	7372	1.321034248376	11
142	7483	1.323147505098	11
142	7938	1.407452919763	11
142	8557	1.5084569238	11
142	9622	1.803697532109	11
142	9794	1.901423256722	11
142	11689	2.401723256722	11
142	12689	2.605809763071	11
142	13809	2.90368545624	11
142	14199	3.003656963906	11
142	14595	3.103685594632	11
142	15527	3.404397568419	11
142	16253	3.608425455007	11
142	17703	4.004357568419	11
142	18358	4.110707988251	11
142	19133	4.403777525551	11
142	19862	4.604758908606	11
142	20831	5.101783256722	11
142	22219	5.408164176049	11
142	22557	5.503477619806	11
142	22719	5.602083256722	11
142	24097	6.005699263548	11
142	25391	6.508245490187	11
142	26570	6.904666553518	11
142	27250	7.007193565091	11
142	27597	7.102724523046	11
142	27924	7.202323256722	11
142	28499	7.60244443815	11
142	29752	8.102704378946	11
142	30902	8.503737657225	11
142	31289	8.606491951144	11
142	31498	8.802003256722	11
142	31838	8.904446716856	11
142	32688	9.101883256722	11
142	33072	9.201903256722	11
142	34225	9.605238637896	11
142	35249	10.10310443815	11
142	36226	10.50477874203	11
142	36450	10.601643256722	11
142	38706	11.304559010479	11
142	39308	11.505471711515	11
142	39970	11.802884609976	11
142	41293	12.208627629498	11
142	41523	12.301963256722	11
142	42547	12.801803256722	11
142	43682	13.30562026186	11
142	44838	13.706233456989	11
142	46159	14.202123256722	11
142	47317	14.604938678542	11
142	47536	14.701843256722	11
142	48938	15.402684609976	11
142	50472	15.907766202945	11
142	51406	16.304818713537	11
142	52771	16.804768170508	11
142	54217	17.203937412218	11
142	54379	17.302063256722	11
142	56244	18.002664378946	11
142	57451	18.405439532109	11
142	57727	18.503877568419	11
142	59475	19.204478389777	11
142	60572	19.604938586509	11
142	60912	19.7040058763	11
142	61835	20.103264523046	11
142	62563	20.3038857322	11
142	63417	20.70280443815	11
142	63691	20.802844609976	11
63	64031	20.904105539282	72097.714738173
66	64031	20.904105539282	72097.714738173
68	64031	20.904105539282	72097.714738173
71	64031	20.904105539282	72097.714738173
73	64031	20.904105539282	72097.714738173
76	64031	20.904105539282	72097.714738173
80	64031	20.904105539282	181218.58028784
83	64031	20.904105539282	60406.19342928
106	64031	20.8	2960
106	64031	20.9	0
106	64031	20.904105539282	0
109	64031	20.8	2960
109	64031	20.9	0
109	64031	20.904105539282	0
111	64031	20.9	2960
111	64031	20.904105539282	0
114	64031	20.9	2960
114	64031	20.904105539282	0
116	64031	20.6	2960
116	64031	20.7	0
116	64031	20.8	0
116	64031	20.9	0
116	64031	20.904105539282	0
119	64031	20.6	2960
119	64031	20.7	0
119	64031	20.8	0
119	64031	20.9	0
119	64031	20.904105539282	0
133	64031	20.9	2960
133	64031	20.904105539282	0
136	64031	20.9	2960
136	64031	20.904105539282	0

