version 3
run General-0-20241125-02:17:09-14696
attr configname General
attr datetime 20241125-02:17:09
attr datetimef 20241125-021709
attr experiment General
attr inifile omnetpp.ini
attr iterationvars ""
attr iterationvarsd ""
attr iterationvarsf ""
attr measurement ""
attr network ZeroWaitNetwork
attr processid 14696
attr repetition 0
attr replication #0
attr resultdir results
attr runnumber 0
attr seedset 0
config image-path ../../inet4.5/images
config network ZeroWaitNetwork
config sim-time-limit 100s
config *.control.numApps 1
config *.sensor*.numApps 1
config *.control.app[0].typename DQNControllerApp
config *.control.app[0].destAddresses "\"sensor0 sensor1 sensor2 sensor3 sensor4 sensor5 sensor6\""
config *.sensor*.app[0].typename DQNSensorApp
config *.sensor*.app[0].destAddresses "\"control\""
config *.control.app[0].destPort 1000
config *.control.app[0].localPort 1000
config *.sensor*.app[0].destPort 1000
config *.sensor*.app[0].localPort 1000
config *.control.app[0].packetSize 10Byte
config *.sensor*.app[0].packetSize 10Byte
config *.control.app[0].messageLength 10Byte
config *.sensor*.app[0].messageLength 10Byte
config *.control.app[0].useAutoConfig true
config *.sensor*.app[0].useAutoConfig true
config *.control.app[0].startTime 2s
config *.sensor[0].app[0].startTime 3s
config *.sensor[1].app[0].startTime 4s
config *.sensor[2].app[0].startTime 5s
config *.sensor[3].app[0].startTime 6s
config *.sensor[4].app[0].startTime 7s
config *.sensor[5].app[0].startTime 8s
config *.sensor[6].app[0].startTime 9s
config *.sensor[7].app[0].startTime 9s
config *.sensor[8].app[0].startTime 9s
config *.sensor[9].app[0].startTime 9s
config *.sensor[10].app[0].startTime 9s
config *.control.app[0].sendInterval exponential(1s)
config *.sensor[0].app[0].sendInterval exponential(1s)
config *.sensor[1].app[0].sendInterval exponential(1.2s)
config *.sensor[2].app[0].sendInterval exponential(1.4s)
config *.sensor[3].app[0].sendInterval exponential(1.6s)
config *.sensor[4].app[0].sendInterval exponential(1.8s)
config *.sensor[5].app[0].sendInterval exponential(2s)
config *.sensor[6].app[0].sendInterval exponential(2.2s)
config *.control.wlan[0].typename WirelessInterface
config *.sensor*.wlan[0].typename WirelessInterface
config *.control.wlan[0].radio.typename UnitDiskRadio
config *.sensor*.wlan[0].radio.typename UnitDiskRadio
config *.control.wlan[0].mac.typename CsmaCaMac
config *.control.wlan[0].mac.ackTimeout 300us
config *.control.wlan[0].queue.typename DropTailQueue
config *.control.wlan[0].queue.packetCapacity 10
config *.control.wlan[0].mac.useAck true
config *.sensor*.wlan[0].mac.typename CsmaCaMac
config *.sensor*.wlan[0].mac.ackTimeout 300us
config *.sensor*.wlan[0].queue.typename DropTailQueue
config *.sensor*.wlan[0].queue.packetCapacity 10
config *.sensor*.wlan[0].mac.useAck true
config *.control.wlan[0].radio.transmitter.communicationRange 500m
config *.sensor*.wlan[0].radio.transmitter.communicationRange 500m
config *.control.wlan[0].radio.transmitter.bitrate 1Mbps
config *.sensor*.wlan[0].radio.transmitter.bitrate 1Mbps
config *.control.wlan[*].bitrate 1Mbps
config *.sensor*.wlan[*].bitrate 1Mbps
config record-eventlog false
config *.visualizer.mediumVisualizer.displayCommunicationRanges true
config *.visualizer.packetDropVisualizer.displayPackets true
config *.visualizer.queueVisualizer.displayQueues true

par ZeroWaitNetwork.configurator typename "\"inet.networklayer.configurator.ipv4.Ipv4NetworkConfigurator\""
par ZeroWaitNetwork.configurator minLinkWeight 0.001
par ZeroWaitNetwork.configurator configureIsolatedNetworksSeparatly false
par ZeroWaitNetwork.configurator config "<config>...</config> at content:1"
par ZeroWaitNetwork.configurator assignAddresses true
par ZeroWaitNetwork.configurator assignUniqueAddresses true
par ZeroWaitNetwork.configurator assignDisjunctSubnetAddresses true
par ZeroWaitNetwork.configurator addStaticRoutes true
par ZeroWaitNetwork.configurator addDefaultRoutes true
par ZeroWaitNetwork.configurator addSubnetRoutes true
par ZeroWaitNetwork.configurator addDirectRoutes true
par ZeroWaitNetwork.configurator optimizeRoutes true
par ZeroWaitNetwork.configurator dumpTopology false
par ZeroWaitNetwork.configurator dumpLinks false
par ZeroWaitNetwork.configurator dumpAddresses false
par ZeroWaitNetwork.configurator dumpRoutes false
par ZeroWaitNetwork.configurator dumpConfig "\"\""
par ZeroWaitNetwork.radioMedium.propagation typename "\"inet.physicallayer.wireless.common.propagation.ConstantSpeedPropagation\""
par ZeroWaitNetwork.radioMedium.propagation propagationSpeed 2.99792e+08mps
attr unit mps
par ZeroWaitNetwork.radioMedium.propagation ignoreMovementDuringTransmission true
par ZeroWaitNetwork.radioMedium.propagation ignoreMovementDuringPropagation true
par ZeroWaitNetwork.radioMedium.propagation ignoreMovementDuringReception true
scalar ZeroWaitNetwork.radioMedium.propagation "Arrival computation count" 13300
par ZeroWaitNetwork.radioMedium.analogModel typename "\"inet.physicallayer.wireless.unitdisk.UnitDiskAnalogModel\""
par ZeroWaitNetwork.radioMedium.pathLoss typename "\"inet.physicallayer.wireless.common.pathloss.FreeSpacePathLoss\""
par ZeroWaitNetwork.radioMedium.pathLoss alpha 2
par ZeroWaitNetwork.radioMedium.pathLoss systemLoss 0dB
attr unit dB
par ZeroWaitNetwork.radioMedium.mediumLimitCache typename "\"inet.physicallayer.wireless.common.medium.MediumLimitCache\""
par ZeroWaitNetwork.radioMedium.mediumLimitCache centerFrequency "nan Hz"
attr unit Hz
par ZeroWaitNetwork.radioMedium.mediumLimitCache maxSpeed "nan mps"
attr unit mps
par ZeroWaitNetwork.radioMedium.mediumLimitCache maxTransmissionPower "nan W"
attr unit W
par ZeroWaitNetwork.radioMedium.mediumLimitCache minInterferencePower "nan dBm"
attr unit dBm
par ZeroWaitNetwork.radioMedium.mediumLimitCache minReceptionPower "nan dBm"
attr unit dBm
par ZeroWaitNetwork.radioMedium.mediumLimitCache maxAntennaGain 0dB
attr unit dB
par ZeroWaitNetwork.radioMedium.mediumLimitCache minInterferenceTime 1e-12s
attr unit s
par ZeroWaitNetwork.radioMedium.mediumLimitCache maxTransmissionDuration 0.01s
attr unit s
par ZeroWaitNetwork.radioMedium.mediumLimitCache maxCommunicationRange "nan m"
attr unit m
par ZeroWaitNetwork.radioMedium.mediumLimitCache maxInterferenceRange "nan m"
attr unit m
par ZeroWaitNetwork.radioMedium.communicationCache typename "\"inet.physicallayer.wireless.common.communicationcache.VectorCommunicationCache\""
par ZeroWaitNetwork.radioMedium typename "\"inet.physicallayer.wireless.unitdisk.UnitDiskRadioMedium\""
par ZeroWaitNetwork.radioMedium physicalEnvironmentModule "\"physicalEnvironment\""
par ZeroWaitNetwork.radioMedium signalAnalogRepresentation "\"unitDisk\""
attr enum unitDisk,scalar,dimensional
par ZeroWaitNetwork.radioMedium rangeFilter "\"\""
par ZeroWaitNetwork.radioMedium radioModeFilter false
par ZeroWaitNetwork.radioMedium listeningFilter false
par ZeroWaitNetwork.radioMedium macAddressFilter false
par ZeroWaitNetwork.radioMedium recordTransmissionLog false
par ZeroWaitNetwork.radioMedium recordReceptionLog false
scalar ZeroWaitNetwork.radioMedium "transmission count" 1900
scalar ZeroWaitNetwork.radioMedium "signal send count" 13300
scalar ZeroWaitNetwork.radioMedium "reception computation count" 13300
scalar ZeroWaitNetwork.radioMedium "interference computation count" 41642
scalar ZeroWaitNetwork.radioMedium "reception decision computation count" 13172
scalar ZeroWaitNetwork.radioMedium "listening decision computation count" 15202
scalar ZeroWaitNetwork.radioMedium "reception cache hit" 85.683376570254
attr unit %
scalar ZeroWaitNetwork.radioMedium "interference cache hit" 66.666666666667
attr unit %
scalar ZeroWaitNetwork.radioMedium "noise cache hit" 0
attr unit %
scalar ZeroWaitNetwork.radioMedium "snir cache hit" 50
attr unit %
scalar ZeroWaitNetwork.radioMedium "reception decision cache hit" 50
attr unit %
scalar ZeroWaitNetwork.radioMedium "reception result cache hit" 0
attr unit %
par ZeroWaitNetwork.control.radioIn[0].channel typename "\"ned.IdealChannel\""
par ZeroWaitNetwork.control.mobility typename "\"inet.mobility.static.StationaryMobility\""
par ZeroWaitNetwork.control.mobility subjectModule "\"^\""
par ZeroWaitNetwork.control.mobility coordinateSystemModule "\"\""
par ZeroWaitNetwork.control.mobility displayStringTextFormat "\"p: %p\\nv: %v\""
attr mutable ""
par ZeroWaitNetwork.control.mobility updateDisplayString true
par ZeroWaitNetwork.control.mobility constraintAreaMinX "-inf m"
attr unit m
par ZeroWaitNetwork.control.mobility constraintAreaMinY "-inf m"
attr unit m
par ZeroWaitNetwork.control.mobility constraintAreaMinZ "-inf m"
attr unit m
par ZeroWaitNetwork.control.mobility constraintAreaMaxX "inf m"
attr unit m
par ZeroWaitNetwork.control.mobility constraintAreaMaxY "inf m"
attr unit m
par ZeroWaitNetwork.control.mobility constraintAreaMaxZ "inf m"
attr unit m
par ZeroWaitNetwork.control.mobility initialX "nan m"
attr unit m
par ZeroWaitNetwork.control.mobility initialY "nan m"
attr unit m
par ZeroWaitNetwork.control.mobility initialZ 0m
attr unit m
par ZeroWaitNetwork.control.mobility initialLatitude "nan deg"
attr unit deg
par ZeroWaitNetwork.control.mobility initialLongitude "nan deg"
attr unit deg
par ZeroWaitNetwork.control.mobility initialAltitude 0m
attr unit m
par ZeroWaitNetwork.control.mobility initialHeading 0deg
attr unit deg
par ZeroWaitNetwork.control.mobility initialElevation 0deg
attr unit deg
par ZeroWaitNetwork.control.mobility initialBank 0deg
attr unit deg
par ZeroWaitNetwork.control.mobility initFromDisplayString true
par ZeroWaitNetwork.control.mobility updateFromDisplayString true
par ZeroWaitNetwork.control.interfaceTable typename "\"inet.networklayer.common.InterfaceTable\""
par ZeroWaitNetwork.control.interfaceTable displayAddresses false
par ZeroWaitNetwork.control.cb typename "\"inet.common.MessageDispatcher\""
par ZeroWaitNetwork.control.cb displayStringTextFormat "\"processed %p pk (%l)\""
par ZeroWaitNetwork.control.cb forwardServiceRegistration true
par ZeroWaitNetwork.control.cb forwardProtocolRegistration true
par ZeroWaitNetwork.control.bl typename "\"inet.common.MessageDispatcher\""
par ZeroWaitNetwork.control.bl displayStringTextFormat "\"processed %p pk (%l)\""
par ZeroWaitNetwork.control.bl forwardServiceRegistration true
par ZeroWaitNetwork.control.bl forwardProtocolRegistration true
par ZeroWaitNetwork.control.li typename "\"inet.common.MessageDispatcher\""
par ZeroWaitNetwork.control.li displayStringTextFormat "\"processed %p pk (%l)\""
par ZeroWaitNetwork.control.li forwardServiceRegistration true
par ZeroWaitNetwork.control.li forwardProtocolRegistration true
par ZeroWaitNetwork.control.lo[0].upperLayerIn.channel typename "\"ned.IdealChannel\""
par ZeroWaitNetwork.control.lo[0].lo.upperLayerOut.channel typename "\"ned.IdealChannel\""
par ZeroWaitNetwork.control.lo[0].lo typename "\"inet.linklayer.loopback.Loopback\""
par ZeroWaitNetwork.control.lo[0].lo interfaceTableModule "\"ZeroWaitNetwork.control.interfaceTable\""
par ZeroWaitNetwork.control.lo[0].lo mtu 4470B
attr unit B
scalar ZeroWaitNetwork.control.lo[0].lo rcvdPkFromHl:count 0
attr interpolationmode none
attr recordingmode count
attr source packetReceivedFromUpper
attr title "packets received from higher layer, count"
scalar ZeroWaitNetwork.control.lo[0].lo rcvdPkFromHl:sum(packetBytes) 0
attr interpolationmode none
attr recordingmode sum(packetBytes)
attr source packetReceivedFromUpper
attr title "packets received from higher layer, sum(packetBytes)"
scalar ZeroWaitNetwork.control.lo[0].lo passedUpPk:count 0
attr interpolationmode none
attr recordingmode count
attr source packetSentToUpper
attr title "packets passed to higher layer, count"
scalar ZeroWaitNetwork.control.lo[0].lo passedUpPk:sum(packetBytes) 0
attr interpolationmode none
attr recordingmode sum(packetBytes)
attr source packetSentToUpper
attr title "packets passed to higher layer, sum(packetBytes)"
par ZeroWaitNetwork.control.lo[0] typename "\"inet.linklayer.loopback.LoopbackInterface\""
par ZeroWaitNetwork.control.lo[0] displayStringTextFormat "\"%a (%i)\\n%m\""
par ZeroWaitNetwork.control.lo[0] recordPcap false
par ZeroWaitNetwork.control.lo[0] numPcapRecorders 0
par ZeroWaitNetwork.control.lo[0] interfaceTableModule "\"ZeroWaitNetwork.control.interfaceTable\""
scalar ZeroWaitNetwork.control.lo[0] packetDropInterfaceDown:count 0
attr interpolationmode none
attr recordingmode count
attr source packetDropReasonIsInterfaceDown(packetDropped)
attr title "packet drops: interface down, count"
scalar ZeroWaitNetwork.control.lo[0] packetDropInterfaceDown:sum(packetBytes) 0
attr interpolationmode none
attr recordingmode sum(packetBytes)
attr source packetDropReasonIsInterfaceDown(packetDropped)
attr title "packet drops: interface down, sum(packetBytes)"
scalar ZeroWaitNetwork.control.lo[0] packetDropNoCarrier:count 0
attr interpolationmode none
attr recordingmode count
attr source packetDropReasonIsNoCarrier(packetDropped)
attr title "packet drops: no carrier, count"
scalar ZeroWaitNetwork.control.lo[0] packetDropNoCarrier:sum(packetBytes) 0
attr interpolationmode none
attr recordingmode sum(packetBytes)
attr source packetDropReasonIsNoCarrier(packetDropped)
attr title "packet drops: no carrier, sum(packetBytes)"
par ZeroWaitNetwork.control.wlan[0].radioIn.channel typename "\"ned.IdealChannel\""
par ZeroWaitNetwork.control.wlan[0].mac.upperLayerOut.channel typename "\"ned.IdealChannel\""
par ZeroWaitNetwork.control.wlan[0].upperLayerIn.channel typename "\"ned.IdealChannel\""
par ZeroWaitNetwork.control.wlan[0].queue typename "\"inet.queueing.queue.DropTailQueue\""
par ZeroWaitNetwork.control.wlan[0].queue displayStringTextFormat "\"contains %p pk (%l) pushed %u\\npulled %o removed %r dropped %d\""
par ZeroWaitNetwork.control.wlan[0].queue packetCapacity 10
par ZeroWaitNetwork.control.wlan[0].queue dataCapacity -1b
attr unit b
par ZeroWaitNetwork.control.wlan[0].queue dropperClass "\"inet::queueing::PacketAtCollectionEndDropper\""
par ZeroWaitNetwork.control.wlan[0].queue comparatorClass "\"\""
par ZeroWaitNetwork.control.wlan[0].queue bufferModule "\"\""
scalar ZeroWaitNetwork.control.wlan[0].queue queueLength:last 2
attr autoWarmupFilter false
attr interpolationmode sample-hold
attr recordingmode last
attr source "warmup(atomic(constant0(packetPushEnded) + count(packetPushStarted) - count(packetPulled) - count(packetRemoved) - count(packetDropped)))"
attr title "queue length, last"
attr unit pk
scalar ZeroWaitNetwork.control.wlan[0].queue queueLength:max 4
attr autoWarmupFilter false
attr interpolationmode sample-hold
attr recordingmode max
attr source "warmup(atomic(constant0(packetPushEnded) + count(packetPushStarted) - count(packetPulled) - count(packetRemoved) - count(packetDropped)))"
attr title "queue length, max"
attr unit pk
scalar ZeroWaitNetwork.control.wlan[0].queue queueLength:timeavg 0.02347937761564
attr autoWarmupFilter false
attr interpolationmode sample-hold
attr recordingmode timeavg
attr source "warmup(atomic(constant0(packetPushEnded) + count(packetPushStarted) - count(packetPulled) - count(packetRemoved) - count(packetDropped)))"
attr title "queue length, timeavg"
attr unit pk
scalar ZeroWaitNetwork.control.wlan[0].queue queueBitLength:last 496
attr autoWarmupFilter false
attr interpolationmode sample-hold
attr recordingmode last
attr source "warmup(atomic(constant0(packetPushEnded) + sum(packetLength(packetPushStarted)) - sum(packetLength(packetPulled)) - sum(packetLength(packetRemoved)) - sum(packetLength(packetDropped))))"
attr title "queue bit length, last"
attr unit b
scalar ZeroWaitNetwork.control.wlan[0].queue queueBitLength:max 992
attr autoWarmupFilter false
attr interpolationmode sample-hold
attr recordingmode max
attr source "warmup(atomic(constant0(packetPushEnded) + sum(packetLength(packetPushStarted)) - sum(packetLength(packetPulled)) - sum(packetLength(packetRemoved)) - sum(packetLength(packetDropped))))"
attr title "queue bit length, max"
attr unit b
scalar ZeroWaitNetwork.control.wlan[0].queue queueBitLength:timeavg 5.8200158978162
attr autoWarmupFilter false
attr interpolationmode sample-hold
attr recordingmode timeavg
attr source "warmup(atomic(constant0(packetPushEnded) + sum(packetLength(packetPushStarted)) - sum(packetLength(packetPulled)) - sum(packetLength(packetRemoved)) - sum(packetLength(packetDropped))))"
attr title "queue bit length, timeavg"
attr unit b
statistic ZeroWaitNetwork.control.wlan[0].queue queueingTime:histogram
field count 468
field mean 0.0010412153164444
field stddev 0.0013652971299189
field min 0
field max 0.00654324119
field sum 0.487288768096
field sqrsum 0.0013778774590074
attr interpolationmode none
attr recordingmode histogram
attr source queueingTime(packetPulled)
attr title "queueing times"
attr unit s
bin	-inf	0
bin	0	256
bin	0.0001	0
bin	0.0002	0
bin	0.0003	0
bin	0.0004	0
bin	0.0005	0
bin	0.0006	0
bin	0.0007	0
bin	0.0008	1
bin	0.0009	0
bin	0.001	7
bin	0.0011	28
bin	0.0012	9
bin	0.0013	19
bin	0.0014	14
bin	0.0015	6
bin	0.0016	3
bin	0.0017	0
bin	0.0018	0
bin	0.0019	1
bin	0.002	11
bin	0.0021	11
bin	0.0022	12
bin	0.0023	7
bin	0.0024	14
bin	0.0025	2
bin	0.0026	6
bin	0.0027	2
bin	0.0028	6
bin	0.0029	4
bin	0.003	5
bin	0.0031	3
bin	0.0032	7
bin	0.0033	6
bin	0.0034	5
bin	0.0035	0
bin	0.0036	3
bin	0.0037	2
bin	0.0038	1
bin	0.0039	2
bin	0.004	1
bin	0.0041	0
bin	0.0042	0
bin	0.0043	1
bin	0.0044	2
bin	0.0045	2
bin	0.0046	1
bin	0.0047	1
bin	0.0048	0
bin	0.0049	0
bin	0.005	1
bin	0.0051	0
bin	0.0052	0
bin	0.0053	0
bin	0.0054	1
bin	0.0055	1
bin	0.0056	0
bin	0.0057	1
bin	0.0058	0
bin	0.0059	0
bin	0.006	0
bin	0.0061	1
bin	0.0062	1
bin	0.0063	0
bin	0.0064	0
bin	0.0065	1
bin	0.0066	0
bin	0.0067	0
bin	0.0068	0
bin	0.0069	0
bin	0.007	0
bin	0.0071	0
bin	0.0072	0
bin	0.0073	0
bin	0.0074	0
bin	0.0075	0
bin	0.0076	0
bin	0.0077	0
bin	0.0078	0
bin	0.0079	0
bin	0.008	0
bin	0.0081	0
bin	0.0082	0
scalar ZeroWaitNetwork.control.wlan[0].queue outgoingPackets:count 468
attr recordingmode count
attr source packetPulled
attr title "outgoing packets, count"
attr unit pk
scalar ZeroWaitNetwork.control.wlan[0].queue outgoingPacketLengths:sum 115896
attr interpolationmode none
attr recordingmode sum
attr source packetLength(packetPulled)
attr title "outgoing packet lengths, sum"
attr unit b
statistic ZeroWaitNetwork.control.wlan[0].queue outgoingPacketLengths:histogram
field count 468
field mean 247.64102564103
field stddev 2.9162809276576
field min 224
field max 248
field sum 115896
field sqrsum 28704576
attr interpolationmode none
attr recordingmode histogram
attr source packetLength(packetPulled)
attr title "outgoing packet lengths"
attr unit b
bin	-inf	0
bin	218	0
bin	219	0
bin	220	0
bin	221	0
bin	222	0
bin	223	0
bin	224	7
bin	225	0
bin	226	0
bin	227	0
bin	228	0
bin	229	0
bin	230	0
bin	231	0
bin	232	0
bin	233	0
bin	234	0
bin	235	0
bin	236	0
bin	237	0
bin	238	0
bin	239	0
bin	240	0
bin	241	0
bin	242	0
bin	243	0
bin	244	0
bin	245	0
bin	246	0
bin	247	0
bin	248	461
bin	249	0
bin	250	0
bin	251	0
bin	252	0
bin	253	0
bin	254	0
statistic ZeroWaitNetwork.control.wlan[0].queue flowQueueingTime:histogram
field count 0
field mean nan
field stddev nan
field min nan
field max nan
field sum 0
field sqrsum 0
attr interpolationmode none
attr recordingmode histogram
attr source queueingTime(demuxFlow(packetPulled))
attr title "flow queueing times"
attr unit s
bin	-inf	0
bin	0	0
bin	1	0
scalar ZeroWaitNetwork.control.wlan[0].queue incomingPackets:count 470
attr recordingmode count
attr source packetPushStarted
attr title "incoming packets, count"
attr unit pk
scalar ZeroWaitNetwork.control.wlan[0].queue incomingPacketLengths:sum 116392
attr interpolationmode none
attr recordingmode sum
attr source packetLength(packetPushStarted)
attr title "incoming packet lengths, sum"
attr unit b
statistic ZeroWaitNetwork.control.wlan[0].queue incomingPacketLengths:histogram
field count 470
field mean 247.64255319149
field stddev 2.9101502156335
field min 224
field max 248
field sum 116392
field sqrsum 28827584
attr interpolationmode none
attr recordingmode histogram
attr source packetLength(packetPushStarted)
attr title "incoming packet lengths"
attr unit b
bin	-inf	0
bin	218	0
bin	219	0
bin	220	0
bin	221	0
bin	222	0
bin	223	0
bin	224	7
bin	225	0
bin	226	0
bin	227	0
bin	228	0
bin	229	0
bin	230	0
bin	231	0
bin	232	0
bin	233	0
bin	234	0
bin	235	0
bin	236	0
bin	237	0
bin	238	0
bin	239	0
bin	240	0
bin	241	0
bin	242	0
bin	243	0
bin	244	0
bin	245	0
bin	246	0
bin	247	0
bin	248	463
bin	249	0
bin	250	0
bin	251	0
bin	252	0
bin	253	0
bin	254	0
scalar ZeroWaitNetwork.control.wlan[0].queue droppedPacketsQueueOverflow:count 0
attr interpolationmode none
attr recordingmode count
attr source packetDropReasonIsQueueOverflow(packetDropped)
attr title "dropped packets: queue overflow, count"
attr unit pk
scalar ZeroWaitNetwork.control.wlan[0].queue droppedPacketLengthsQueueOverflow:sum 0
attr interpolationmode none
attr recordingmode sum
attr source packetLength(packetDropReasonIsQueueOverflow(packetDropped))
attr title "dropped packet lengths: queue overflow, sum"
attr unit b
par ZeroWaitNetwork.control.wlan[0].mac typename "\"inet.linklayer.csmaca.CsmaCaMac\""
par ZeroWaitNetwork.control.wlan[0].mac interfaceTableModule "\"ZeroWaitNetwork.control.interfaceTable\""
par ZeroWaitNetwork.control.wlan[0].mac radioModule "\"^.radio\""
par ZeroWaitNetwork.control.wlan[0].mac address "\"auto\""
attr mutable ""
par ZeroWaitNetwork.control.wlan[0].mac fcsMode "\"declared\""
attr enum declared,computed
par ZeroWaitNetwork.control.wlan[0].mac useAck true
par ZeroWaitNetwork.control.wlan[0].mac bitrate 1e+06bps
attr unit bps
par ZeroWaitNetwork.control.wlan[0].mac headerLength 17B
attr unit B
par ZeroWaitNetwork.control.wlan[0].mac ackLength 14B
attr unit B
par ZeroWaitNetwork.control.wlan[0].mac sifsTime 1e-05s
attr unit s
par ZeroWaitNetwork.control.wlan[0].mac slotTime 2e-05s
attr unit s
par ZeroWaitNetwork.control.wlan[0].mac difsTime 5e-05s
attr unit s
par ZeroWaitNetwork.control.wlan[0].mac ackTimeout 0.0003s
attr unit s
par ZeroWaitNetwork.control.wlan[0].mac mtu 1500
par ZeroWaitNetwork.control.wlan[0].mac cwMin 31
par ZeroWaitNetwork.control.wlan[0].mac cwMax 1023
par ZeroWaitNetwork.control.wlan[0].mac cwMulticast 31
par ZeroWaitNetwork.control.wlan[0].mac retryLimit 7
scalar ZeroWaitNetwork.control.wlan[0].mac numRetry 8
scalar ZeroWaitNetwork.control.wlan[0].mac numSentWithoutRetry 460
scalar ZeroWaitNetwork.control.wlan[0].mac numGivenUp 0
scalar ZeroWaitNetwork.control.wlan[0].mac numCollision 8
scalar ZeroWaitNetwork.control.wlan[0].mac numSent 467
scalar ZeroWaitNetwork.control.wlan[0].mac numReceived 463
scalar ZeroWaitNetwork.control.wlan[0].mac numSentBroadcast 0
scalar ZeroWaitNetwork.control.wlan[0].mac numReceivedBroadcast 7
scalar ZeroWaitNetwork.control.wlan[0].mac packetDropIncorrectlyReceived:count 8
attr interpolationmode none
attr recordingmode count
attr source packetDropReasonIsIncorrectlyReceived(packetDropped)
attr title "packet drop: incorrectly received, count"
scalar ZeroWaitNetwork.control.wlan[0].mac packetDropIncorrectlyReceived:sum(packetBytes) 455
attr interpolationmode none
attr recordingmode sum(packetBytes)
attr source packetDropReasonIsIncorrectlyReceived(packetDropped)
attr title "packet drop: incorrectly received, sum(packetBytes)"
scalar ZeroWaitNetwork.control.wlan[0].mac packetDropNotAddressedToUs:count 0
attr interpolationmode none
attr recordingmode count
attr source packetDropReasonIsNotAddressedToUs(packetDropped)
attr title "packet drop: not addressed to us, count"
scalar ZeroWaitNetwork.control.wlan[0].mac packetDropNotAddressedToUs:sum(packetBytes) 0
attr interpolationmode none
attr recordingmode sum(packetBytes)
attr source packetDropReasonIsNotAddressedToUs(packetDropped)
attr title "packet drop: not addressed to us, sum(packetBytes)"
scalar ZeroWaitNetwork.control.wlan[0].mac packetDropQueueOverflow:count 0
attr interpolationmode none
attr recordingmode count
attr source packetDropReasonIsQueueOverflow(packetDropped)
attr title "packet drop: queue overflow, count"
scalar ZeroWaitNetwork.control.wlan[0].mac packetDropQueueOverflow:sum(packetBytes) 0
attr interpolationmode none
attr recordingmode sum(packetBytes)
attr source packetDropReasonIsQueueOverflow(packetDropped)
attr title "packet drop: queue overflow, sum(packetBytes)"
scalar ZeroWaitNetwork.control.wlan[0].mac packetDropRetryLimitReached:count 0
attr interpolationmode none
attr recordingmode count
attr source packetDropReasonIsRetryLimitReached(packetDropped)
attr title "packet drop: retry limit reached, count"
scalar ZeroWaitNetwork.control.wlan[0].mac packetDropRetryLimitReached:sum(packetBytes) 0
attr interpolationmode none
attr recordingmode sum(packetBytes)
attr source packetDropReasonIsRetryLimitReached(packetDropped)
attr title "packet drop: retry limit reached, sum(packetBytes)"
scalar ZeroWaitNetwork.control.wlan[0].mac linkBroken:count 0
attr interpolationmode none
attr recordingmode count
attr source linkBroken
attr title "link break, count"
par ZeroWaitNetwork.control.wlan[0].radio.antenna typename "\"inet.physicallayer.wireless.common.antenna.IsotropicAntenna\""
par ZeroWaitNetwork.control.wlan[0].radio.antenna mobilityModule "\"^.^.^.mobility\""
par ZeroWaitNetwork.control.wlan[0].radio.antenna numAntennas 1
par ZeroWaitNetwork.control.wlan[0].radio.transmitter typename "\"inet.physicallayer.wireless.unitdisk.UnitDiskTransmitter\""
par ZeroWaitNetwork.control.wlan[0].radio.transmitter preambleDuration 0s
attr unit s
par ZeroWaitNetwork.control.wlan[0].radio.transmitter headerLength 96b
attr unit b
par ZeroWaitNetwork.control.wlan[0].radio.transmitter bitrate 1e+06bps
attr unit bps
par ZeroWaitNetwork.control.wlan[0].radio.transmitter communicationRange 500m
attr unit m
par ZeroWaitNetwork.control.wlan[0].radio.transmitter interferenceRange 500m
attr unit m
par ZeroWaitNetwork.control.wlan[0].radio.transmitter detectionRange 500m
attr unit m
par ZeroWaitNetwork.control.wlan[0].radio.receiver typename "\"inet.physicallayer.wireless.unitdisk.UnitDiskReceiver\""
par ZeroWaitNetwork.control.wlan[0].radio.receiver ignoreInterference false
par ZeroWaitNetwork.control.wlan[0].radio typename "\"inet.physicallayer.wireless.unitdisk.UnitDiskRadio\""
par ZeroWaitNetwork.control.wlan[0].radio radioMediumModule "\"radioMedium\""
par ZeroWaitNetwork.control.wlan[0].radio energySourceModule "\"\""
par ZeroWaitNetwork.control.wlan[0].radio initialRadioMode "\"off\""
attr enum off,sleep,receiver,transmitter,transceiver
par ZeroWaitNetwork.control.wlan[0].radio switchingTimes "\"ms 0 0 0 0 0 0 0 0 0 0 0 0 0 0 0 0 0 0 0 0 0 0 0 0 0\""
par ZeroWaitNetwork.control.wlan[0].radio sendRawBytes false
par ZeroWaitNetwork.control.wlan[0].radio separateTransmissionParts false
par ZeroWaitNetwork.control.wlan[0].radio separateReceptionParts false
par ZeroWaitNetwork.control.wlan[0].radio displayCommunicationRange false
par ZeroWaitNetwork.control.wlan[0].radio displayInterferenceRange false
statistic ZeroWaitNetwork.control.wlan[0].radio minSnir:histogram
field count 0
field mean nan
field stddev nan
field min nan
field max nan
field sum 0
field sqrsum 0
attr recordingmode histogram
attr source minimumSnir(packetSentToUpper)
attr title "Min SNIR"
bin	-inf	0
bin	0	0
bin	1	0
statistic ZeroWaitNetwork.control.wlan[0].radio packetErrorRate:histogram
field count 945
field mean 0.0084656084656085
field stddev 0.091666972386802
field min 0
field max 1
field sum 8
field sqrsum 8
attr recordingmode histogram
attr source packetErrorRate(packetSentToUpper)
attr title "Packet error rate"
bin	-inf	0
bin	0	937
bin	1	8
bin	2	0
statistic ZeroWaitNetwork.control.wlan[0].radio bitErrorRate:histogram
field count 945
field mean 0.0084656084656085
field stddev 0.091666972386802
field min 0
field max 1
field sum 8
field sqrsum 8
attr recordingmode histogram
attr source bitErrorRate(packetSentToUpper)
attr title "Bit error rate"
bin	-inf	0
bin	0	937
bin	1	8
bin	2	0
statistic ZeroWaitNetwork.control.wlan[0].radio symbolErrorRate:histogram
field count 945
field mean 0.0084656084656085
field stddev 0.091666972386802
field min 0
field max 1
field sum 8
field sqrsum 8
attr recordingmode histogram
attr source symbolErrorRate(packetSentToUpper)
attr title "Symbol error rate"
bin	-inf	0
bin	0	937
bin	1	8
bin	2	0
scalar ZeroWaitNetwork.control.wlan[0].radio transmissionState:count 3756
attr interpolationmode sample-hold
attr recordingmode count
attr source transmissionStateChanged
attr title "Radio transmission state, count"
scalar ZeroWaitNetwork.control.wlan[0].radio receptionState:count 3784
attr interpolationmode sample-hold
attr recordingmode count
attr source receptionStateChanged
attr title "Radio reception state, count"
scalar ZeroWaitNetwork.control.wlan[0].radio radioMode:count 1881
attr interpolationmode sample-hold
attr recordingmode count
attr source radioModeChanged
attr title "Radio mode, count"
par ZeroWaitNetwork.control.wlan[0] typename "\"inet.linklayer.common.WirelessInterface\""
par ZeroWaitNetwork.control.wlan[0] displayStringTextFormat "\"%a (%i)\\n%m\""
par ZeroWaitNetwork.control.wlan[0] recordPcap false
par ZeroWaitNetwork.control.wlan[0] numPcapRecorders 0
par ZeroWaitNetwork.control.wlan[0] interfaceTableModule "\"ZeroWaitNetwork.control.interfaceTable\""
par ZeroWaitNetwork.control.wlan[0] energySourceModule "\"\""
par ZeroWaitNetwork.control.wlan[0] protocol "\"\""
scalar ZeroWaitNetwork.control.wlan[0] packetDropInterfaceDown:count 0
attr interpolationmode none
attr recordingmode count
attr source packetDropReasonIsInterfaceDown(packetDropped)
attr title "packet drops: interface down, count"
scalar ZeroWaitNetwork.control.wlan[0] packetDropInterfaceDown:sum(packetBytes) 0
attr interpolationmode none
attr recordingmode sum(packetBytes)
attr source packetDropReasonIsInterfaceDown(packetDropped)
attr title "packet drops: interface down, sum(packetBytes)"
scalar ZeroWaitNetwork.control.wlan[0] packetDropNoCarrier:count 0
attr interpolationmode none
attr recordingmode count
attr source packetDropReasonIsNoCarrier(packetDropped)
attr title "packet drops: no carrier, count"
scalar ZeroWaitNetwork.control.wlan[0] packetDropNoCarrier:sum(packetBytes) 0
attr interpolationmode none
attr recordingmode sum(packetBytes)
attr source packetDropReasonIsNoCarrier(packetDropped)
attr title "packet drops: no carrier, sum(packetBytes)"
par ZeroWaitNetwork.control.ipv4.transportIn.channel typename "\"ned.IdealChannel\""
par ZeroWaitNetwork.control.ipv4.up.out[0].channel typename "\"ned.IdealChannel\""
par ZeroWaitNetwork.control.ipv4.lp.out[2].channel typename "\"ned.IdealChannel\""
par ZeroWaitNetwork.control.ipv4.ifIn.channel typename "\"ned.IdealChannel\""
par ZeroWaitNetwork.control.ipv4.configurator typename "\"inet.networklayer.configurator.ipv4.Ipv4NodeConfigurator\""
par ZeroWaitNetwork.control.ipv4.configurator interfaceTableModule "\"ZeroWaitNetwork.control.interfaceTable\""
par ZeroWaitNetwork.control.ipv4.configurator routingTableModule "\"ZeroWaitNetwork.control.ipv4.routingTable\""
par ZeroWaitNetwork.control.ipv4.configurator networkConfiguratorModule "\"configurator\""
par ZeroWaitNetwork.control.ipv4.configurator configureRoutingTable true
par ZeroWaitNetwork.control.ipv4.routingTable typename "\"inet.networklayer.ipv4.Ipv4RoutingTable\""
par ZeroWaitNetwork.control.ipv4.routingTable interfaceTableModule "\"ZeroWaitNetwork.control.interfaceTable\""
par ZeroWaitNetwork.control.ipv4.routingTable routerId "\"auto\""
par ZeroWaitNetwork.control.ipv4.routingTable netmaskRoutes "\"*\""
par ZeroWaitNetwork.control.ipv4.routingTable forwarding false
par ZeroWaitNetwork.control.ipv4.routingTable multicastForwarding false
par ZeroWaitNetwork.control.ipv4.routingTable useAdminDist false
par ZeroWaitNetwork.control.ipv4.routingTable routingFile "\"\""
par ZeroWaitNetwork.control.ipv4.natTable typename "\"inet.networklayer.ipv4.Ipv4NatTable\""
par ZeroWaitNetwork.control.ipv4.natTable networkProtocolModule "\"^.ip\""
par ZeroWaitNetwork.control.ipv4.natTable config "<config/> at content:1"
par ZeroWaitNetwork.control.ipv4.up typename "\"inet.common.MessageDispatcher\""
par ZeroWaitNetwork.control.ipv4.up displayStringTextFormat "\"processed %p pk (%l)\""
par ZeroWaitNetwork.control.ipv4.up forwardServiceRegistration true
par ZeroWaitNetwork.control.ipv4.up forwardProtocolRegistration true
par ZeroWaitNetwork.control.ipv4.igmp typename "\"inet.networklayer.ipv4.Igmpv2\""
par ZeroWaitNetwork.control.ipv4.igmp interfaceTableModule "\"ZeroWaitNetwork.control.interfaceTable\""
par ZeroWaitNetwork.control.ipv4.igmp routingTableModule "\"ZeroWaitNetwork.control.ipv4.routingTable\""
par ZeroWaitNetwork.control.ipv4.igmp crcMode "\"declared\""
attr enum declared,computed
par ZeroWaitNetwork.control.ipv4.igmp enabled true
par ZeroWaitNetwork.control.ipv4.igmp robustnessVariable 2
par ZeroWaitNetwork.control.ipv4.igmp queryInterval 125s
attr unit s
par ZeroWaitNetwork.control.ipv4.igmp queryResponseInterval 10s
attr unit s
par ZeroWaitNetwork.control.ipv4.igmp groupMembershipInterval 260s
attr unit s
par ZeroWaitNetwork.control.ipv4.igmp otherQuerierPresentInterval 255s
attr unit s
par ZeroWaitNetwork.control.ipv4.igmp startupQueryInterval 31.25s
attr unit s
par ZeroWaitNetwork.control.ipv4.igmp startupQueryCount 2
par ZeroWaitNetwork.control.ipv4.igmp lastMemberQueryInterval 1s
attr unit s
par ZeroWaitNetwork.control.ipv4.igmp lastMemberQueryCount 2
par ZeroWaitNetwork.control.ipv4.igmp unsolicitedReportInterval 10s
attr unit s
par ZeroWaitNetwork.control.ipv4.icmp typename "\"inet.networklayer.ipv4.Icmp\""
par ZeroWaitNetwork.control.ipv4.icmp interfaceTableModule "\"ZeroWaitNetwork.control.interfaceTable\""
par ZeroWaitNetwork.control.ipv4.icmp routingTableModule "\"ZeroWaitNetwork.control.ipv4.routingTable\""
par ZeroWaitNetwork.control.ipv4.icmp crcMode "\"declared\""
attr enum declared,computed
attr mutable ""
par ZeroWaitNetwork.control.ipv4.icmp quoteLength 8B
attr mutable ""
attr unit B
par ZeroWaitNetwork.control.ipv4.mp typename "\"inet.common.MessageDispatcher\""
par ZeroWaitNetwork.control.ipv4.mp displayStringTextFormat "\"processed %p pk (%l)\""
par ZeroWaitNetwork.control.ipv4.mp forwardServiceRegistration true
par ZeroWaitNetwork.control.ipv4.mp forwardProtocolRegistration true
par ZeroWaitNetwork.control.ipv4.ip typename "\"inet.networklayer.ipv4.Ipv4\""
par ZeroWaitNetwork.control.ipv4.ip interfaceTableModule "\"ZeroWaitNetwork.control.interfaceTable\""
par ZeroWaitNetwork.control.ipv4.ip routingTableModule "\"ZeroWaitNetwork.control.ipv4.routingTable\""
par ZeroWaitNetwork.control.ipv4.ip arpModule "\"ZeroWaitNetwork.control.ipv4.arp\""
par ZeroWaitNetwork.control.ipv4.ip icmpModule "\"ZeroWaitNetwork.control.ipv4.icmp\""
par ZeroWaitNetwork.control.ipv4.ip crcMode "\"declared\""
attr enum declared,computed
par ZeroWaitNetwork.control.ipv4.ip timeToLive 32
par ZeroWaitNetwork.control.ipv4.ip multicastTimeToLive 32
par ZeroWaitNetwork.control.ipv4.ip fragmentTimeout 60s
attr unit s
par ZeroWaitNetwork.control.ipv4.ip limitedBroadcast false
par ZeroWaitNetwork.control.ipv4.ip directBroadcastInterfaces "\"\""
scalar ZeroWaitNetwork.control.ipv4.ip packetDropAddressResolutionFailed:count 0
attr interpolationmode none
attr recordingmode count
attr source packetDropReasonIsAddressResolutionFailed(packetDropped)
attr title "packet drop: address resolution failed, count"
scalar ZeroWaitNetwork.control.ipv4.ip packetDropAddressResolutionFailed:sum(packetBytes) 0
attr interpolationmode none
attr recordingmode sum(packetBytes)
attr source packetDropReasonIsAddressResolutionFailed(packetDropped)
attr title "packet drop: address resolution failed, sum(packetBytes)"
scalar ZeroWaitNetwork.control.ipv4.ip packetDropHopLimitReached:count 0
attr interpolationmode none
attr recordingmode count
attr source packetDropReasonIsHopLimitReached(packetDropped)
attr title "packet drop: hop limit reached, count"
scalar ZeroWaitNetwork.control.ipv4.ip packetDropHopLimitReached:sum(packetBytes) 0
attr interpolationmode none
attr recordingmode sum(packetBytes)
attr source packetDropReasonIsHopLimitReached(packetDropped)
attr title "packet drop: hop limit reached, sum(packetBytes)"
scalar ZeroWaitNetwork.control.ipv4.ip packetDropForwardingDisabled:count 0
attr interpolationmode none
attr recordingmode count
attr source packetDropReasonIsForwardingDisabled(packetDropped)
attr title "packet drop: forwarding disabled, count"
scalar ZeroWaitNetwork.control.ipv4.ip packetDropForwardingDisabled:sum(packetBytes) 0
attr interpolationmode none
attr recordingmode sum(packetBytes)
attr source packetDropReasonIsForwardingDisabled(packetDropped)
attr title "packet drop: forwarding disabled, sum(packetBytes)"
scalar ZeroWaitNetwork.control.ipv4.ip packetDropNoInterfaceFound:count 0
attr interpolationmode none
attr recordingmode count
attr source packetDropReasonIsNoInterfaceFound(packetDropped)
attr title "packet drop: no interface found, count"
scalar ZeroWaitNetwork.control.ipv4.ip packetDropNoInterfaceFound:sum(packetBytes) 0
attr interpolationmode none
attr recordingmode sum(packetBytes)
attr source packetDropReasonIsNoInterfaceFound(packetDropped)
attr title "packet drop: no interface found, sum(packetBytes)"
scalar ZeroWaitNetwork.control.ipv4.ip packetDropNoRouteFound:count 0
attr interpolationmode none
attr recordingmode count
attr source packetDropReasonIsNoRouteFound(packetDropped)
attr title "packet drop: no route found, count"
scalar ZeroWaitNetwork.control.ipv4.ip packetDropNoRouteFound:sum(packetBytes) 0
attr interpolationmode none
attr recordingmode sum(packetBytes)
attr source packetDropReasonIsNoRouteFound(packetDropped)
attr title "packet drop: no route found, sum(packetBytes)"
scalar ZeroWaitNetwork.control.ipv4.ip packetDropUndefined:count 0
attr interpolationmode none
attr recordingmode count
attr source packetDropReasonIsUndefined(packetDropped)
attr title "packet drop: undefined, count"
scalar ZeroWaitNetwork.control.ipv4.ip packetDropUndefined:sum(packetBytes) 0
attr interpolationmode none
attr recordingmode sum(packetBytes)
attr source packetDropReasonIsUndefined(packetDropped)
attr title "packet drop: undefined, sum(packetBytes)"
par ZeroWaitNetwork.control.ipv4.arp typename "\"inet.networklayer.arp.ipv4.Arp\""
par ZeroWaitNetwork.control.ipv4.arp interfaceTableModule "\"ZeroWaitNetwork.control.interfaceTable\""
par ZeroWaitNetwork.control.ipv4.arp routingTableModule "\"ZeroWaitNetwork.control.ipv4.routingTable\""
par ZeroWaitNetwork.control.ipv4.arp retryTimeout 1s
attr unit s
par ZeroWaitNetwork.control.ipv4.arp retryCount 3
par ZeroWaitNetwork.control.ipv4.arp cacheTimeout 120s
attr unit s
par ZeroWaitNetwork.control.ipv4.arp proxyArpInterfaces "\"\""
scalar ZeroWaitNetwork.control.ipv4.arp arpReplySent:count 7
attr recordingmode count
attr source arpReplySent
attr title "ARP replies sent, count"
scalar ZeroWaitNetwork.control.ipv4.arp arpReplySent:sum(packetBytes) 196
attr recordingmode sum(packetBytes)
attr source arpReplySent
attr title "ARP replies sent, sum(packetBytes)"
scalar ZeroWaitNetwork.control.ipv4.arp arpRequestSent:count 0
attr recordingmode count
attr source arpRequestSent
attr title "ARP request sent, count"
scalar ZeroWaitNetwork.control.ipv4.arp arpRequestSent:sum(packetBytes) 0
attr recordingmode sum(packetBytes)
attr source arpRequestSent
attr title "ARP request sent, sum(packetBytes)"
scalar ZeroWaitNetwork.control.ipv4.arp arpResolutionFailed:count 0
attr recordingmode count
attr title "ARP failed resolutions, count"
scalar ZeroWaitNetwork.control.ipv4.arp arpResolutionCompleted:count 7
attr recordingmode count
attr title "ARP completed resolutions, count"
scalar ZeroWaitNetwork.control.ipv4.arp arpResolutionInitiated:count 0
attr recordingmode count
attr title "ARP initiated resolutions, count"
par ZeroWaitNetwork.control.ipv4.lp typename "\"inet.common.MessageDispatcher\""
par ZeroWaitNetwork.control.ipv4.lp displayStringTextFormat "\"processed %p pk (%l)\""
par ZeroWaitNetwork.control.ipv4.lp forwardServiceRegistration true
par ZeroWaitNetwork.control.ipv4.lp forwardProtocolRegistration true
par ZeroWaitNetwork.control.ipv4 typename "\"inet.networklayer.ipv4.Ipv4NetworkLayer\""
par ZeroWaitNetwork.control.ipv4 forwarding false
par ZeroWaitNetwork.control.ipv4 multicastForwarding false
par ZeroWaitNetwork.control.ipv4 interfaceTableModule "\"ZeroWaitNetwork.control.interfaceTable\""
par ZeroWaitNetwork.control.ipv4 displayStringTextFormat "\"%i\""
par ZeroWaitNetwork.control.nl typename "\"inet.common.MessageDispatcher\""
par ZeroWaitNetwork.control.nl displayStringTextFormat "\"processed %p pk (%l)\""
par ZeroWaitNetwork.control.nl forwardServiceRegistration true
par ZeroWaitNetwork.control.nl forwardProtocolRegistration true
par ZeroWaitNetwork.control.udp typename "\"inet.transportlayer.udp.Udp\""
par ZeroWaitNetwork.control.udp interfaceTableModule "\"ZeroWaitNetwork.control.interfaceTable\""
par ZeroWaitNetwork.control.udp icmpModule "\"^.ipv4.icmp\""
par ZeroWaitNetwork.control.udp icmpv6Module "\"^.ipv6.icmpv6\""
par ZeroWaitNetwork.control.udp crcMode "\"declared\""
attr enum disabled,declared,computed
par ZeroWaitNetwork.control.udp defaultMulticastLoop true
scalar ZeroWaitNetwork.control.udp packetReceived:count 463
attr interpolationmode none
attr recordingmode count
attr source packetReceived
attr title "packets received, count"
scalar ZeroWaitNetwork.control.udp packetReceived:sum(packetBytes) 7871
attr interpolationmode none
attr recordingmode sum(packetBytes)
attr source packetReceived
attr title "packets received, sum(packetBytes)"
scalar ZeroWaitNetwork.control.udp packetSent:count 463
attr interpolationmode none
attr recordingmode count
attr source packetSent
attr title "packets sent, count"
scalar ZeroWaitNetwork.control.udp packetSent:sum(packetBytes) 5093
attr interpolationmode none
attr recordingmode sum(packetBytes)
attr source packetSent
attr title "packets sent, sum(packetBytes)"
scalar ZeroWaitNetwork.control.udp passedUpPk:count 463
attr interpolationmode none
attr recordingmode count
attr source packetSentToUpper
attr title "packets passed up, count"
scalar ZeroWaitNetwork.control.udp droppedPkWrongPort:count 0
attr interpolationmode none
attr recordingmode count
attr source packetDropReasonIsNoPortFound(packetDropped)
attr title "packets dropped (wrong port), count"
scalar ZeroWaitNetwork.control.udp droppedPkBadChecksum:count 0
attr interpolationmode none
attr recordingmode count
attr source packetDropReasonIsIncorrectlyReceived(packetDropped)
attr title "packets dropped (checksum error), count"
par ZeroWaitNetwork.control.tcp typename "\"inet.transportlayer.tcp.Tcp\""
par ZeroWaitNetwork.control.tcp crcMode "\"declared\""
attr enum declared,computed
par ZeroWaitNetwork.control.tcp advertisedWindow 7504
par ZeroWaitNetwork.control.tcp delayedAcksEnabled false
par ZeroWaitNetwork.control.tcp nagleEnabled true
par ZeroWaitNetwork.control.tcp limitedTransmitEnabled false
par ZeroWaitNetwork.control.tcp increasedIWEnabled false
par ZeroWaitNetwork.control.tcp sackSupport false
par ZeroWaitNetwork.control.tcp windowScalingSupport false
par ZeroWaitNetwork.control.tcp windowScalingFactor -1
par ZeroWaitNetwork.control.tcp timestampSupport false
par ZeroWaitNetwork.control.tcp mss 536
par ZeroWaitNetwork.control.tcp msl 120s
attr unit s
par ZeroWaitNetwork.control.tcp tcpAlgorithmClass "\"TcpReno\""
attr enum TcpVegas,TcpWestwood,TcpNewReno,TcpReno,TcpTahoe,TcpNoCongestionControl
par ZeroWaitNetwork.control.tcp useDataNotification false
par ZeroWaitNetwork.control.tcp dupthresh 3
par ZeroWaitNetwork.control.tcp initialSsthresh 4294967295
par ZeroWaitNetwork.control.tcp stopOperationExtraTime 0s
attr unit s
par ZeroWaitNetwork.control.tcp stopOperationTimeout 2s
attr unit s
par ZeroWaitNetwork.control.tcp ecnWillingness false
par ZeroWaitNetwork.control.tcp dctcpGamma 0.0625
par ZeroWaitNetwork.control.tn typename "\"inet.common.MessageDispatcher\""
par ZeroWaitNetwork.control.tn displayStringTextFormat "\"processed %p pk (%l)\""
par ZeroWaitNetwork.control.tn forwardServiceRegistration true
par ZeroWaitNetwork.control.tn forwardProtocolRegistration true
par ZeroWaitNetwork.control.app[0] typename "\"zero_wait.simulations.DQNControllerApp\""
par ZeroWaitNetwork.control.app[0] interfaceTableModule "\"ZeroWaitNetwork.control.interfaceTable\""
par ZeroWaitNetwork.control.app[0] localAddress "\"\""
par ZeroWaitNetwork.control.app[0] localPort 1000
par ZeroWaitNetwork.control.app[0] destPort 1000
par ZeroWaitNetwork.control.app[0] destAddresses "\"sensor0 sensor1 sensor2 sensor3 sensor4 sensor5 sensor6\""
par ZeroWaitNetwork.control.app[0] sendInterval 1.8596s
attr unit s
par ZeroWaitNetwork.control.app[0] startTime 2s
attr unit s
par ZeroWaitNetwork.control.app[0] useAutoConfig true
par ZeroWaitNetwork.control.at typename "\"inet.common.MessageDispatcher\""
par ZeroWaitNetwork.control.at displayStringTextFormat "\"processed %p pk (%l)\""
par ZeroWaitNetwork.control.at forwardServiceRegistration true
par ZeroWaitNetwork.control.at forwardProtocolRegistration true
par ZeroWaitNetwork.control typename "\"inet.node.inet.WirelessHost\""
par ZeroWaitNetwork.control hasStatus false
par ZeroWaitNetwork.control osgModel "\"\""
par ZeroWaitNetwork.control osgModelColor "\"\""
par ZeroWaitNetwork.control canvasImage "\"\""
par ZeroWaitNetwork.control canvasImageColor "\"\""
par ZeroWaitNetwork.control recordPcap false
par ZeroWaitNetwork.control numPcapRecorders 0
par ZeroWaitNetwork.control numLoInterfaces 1
par ZeroWaitNetwork.control numWlanInterfaces 1
par ZeroWaitNetwork.control numEthInterfaces 0
par ZeroWaitNetwork.control numPppInterfaces 0
par ZeroWaitNetwork.control numTunInterfaces 0
par ZeroWaitNetwork.control numVirtInterfaces 0
par ZeroWaitNetwork.control fcsMode "\"declared\""
attr enum declared,computed
par ZeroWaitNetwork.control hasIpv4 true
par ZeroWaitNetwork.control hasIpv6 false
par ZeroWaitNetwork.control hasGn false
par ZeroWaitNetwork.control forwarding false
par ZeroWaitNetwork.control multicastForwarding false
par ZeroWaitNetwork.control hasUdp true
par ZeroWaitNetwork.control hasTcp true
par ZeroWaitNetwork.control hasSctp false
par ZeroWaitNetwork.control numApps 1
par ZeroWaitNetwork.sensor0.radioIn[0].channel typename "\"ned.IdealChannel\""
par ZeroWaitNetwork.sensor0.mobility typename "\"inet.mobility.static.StationaryMobility\""
par ZeroWaitNetwork.sensor0.mobility subjectModule "\"^\""
par ZeroWaitNetwork.sensor0.mobility coordinateSystemModule "\"\""
par ZeroWaitNetwork.sensor0.mobility displayStringTextFormat "\"p: %p\\nv: %v\""
attr mutable ""
par ZeroWaitNetwork.sensor0.mobility updateDisplayString true
par ZeroWaitNetwork.sensor0.mobility constraintAreaMinX "-inf m"
attr unit m
par ZeroWaitNetwork.sensor0.mobility constraintAreaMinY "-inf m"
attr unit m
par ZeroWaitNetwork.sensor0.mobility constraintAreaMinZ "-inf m"
attr unit m
par ZeroWaitNetwork.sensor0.mobility constraintAreaMaxX "inf m"
attr unit m
par ZeroWaitNetwork.sensor0.mobility constraintAreaMaxY "inf m"
attr unit m
par ZeroWaitNetwork.sensor0.mobility constraintAreaMaxZ "inf m"
attr unit m
par ZeroWaitNetwork.sensor0.mobility initialX "nan m"
attr unit m
par ZeroWaitNetwork.sensor0.mobility initialY "nan m"
attr unit m
par ZeroWaitNetwork.sensor0.mobility initialZ 0m
attr unit m
par ZeroWaitNetwork.sensor0.mobility initialLatitude "nan deg"
attr unit deg
par ZeroWaitNetwork.sensor0.mobility initialLongitude "nan deg"
attr unit deg
par ZeroWaitNetwork.sensor0.mobility initialAltitude 0m
attr unit m
par ZeroWaitNetwork.sensor0.mobility initialHeading 0deg
attr unit deg
par ZeroWaitNetwork.sensor0.mobility initialElevation 0deg
attr unit deg
par ZeroWaitNetwork.sensor0.mobility initialBank 0deg
attr unit deg
par ZeroWaitNetwork.sensor0.mobility initFromDisplayString true
par ZeroWaitNetwork.sensor0.mobility updateFromDisplayString true
par ZeroWaitNetwork.sensor0.interfaceTable typename "\"inet.networklayer.common.InterfaceTable\""
par ZeroWaitNetwork.sensor0.interfaceTable displayAddresses false
par ZeroWaitNetwork.sensor0.cb typename "\"inet.common.MessageDispatcher\""
par ZeroWaitNetwork.sensor0.cb displayStringTextFormat "\"processed %p pk (%l)\""
par ZeroWaitNetwork.sensor0.cb forwardServiceRegistration true
par ZeroWaitNetwork.sensor0.cb forwardProtocolRegistration true
par ZeroWaitNetwork.sensor0.bl typename "\"inet.common.MessageDispatcher\""
par ZeroWaitNetwork.sensor0.bl displayStringTextFormat "\"processed %p pk (%l)\""
par ZeroWaitNetwork.sensor0.bl forwardServiceRegistration true
par ZeroWaitNetwork.sensor0.bl forwardProtocolRegistration true
par ZeroWaitNetwork.sensor0.li typename "\"inet.common.MessageDispatcher\""
par ZeroWaitNetwork.sensor0.li displayStringTextFormat "\"processed %p pk (%l)\""
par ZeroWaitNetwork.sensor0.li forwardServiceRegistration true
par ZeroWaitNetwork.sensor0.li forwardProtocolRegistration true
par ZeroWaitNetwork.sensor0.lo[0].upperLayerIn.channel typename "\"ned.IdealChannel\""
par ZeroWaitNetwork.sensor0.lo[0].lo.upperLayerOut.channel typename "\"ned.IdealChannel\""
par ZeroWaitNetwork.sensor0.lo[0].lo typename "\"inet.linklayer.loopback.Loopback\""
par ZeroWaitNetwork.sensor0.lo[0].lo interfaceTableModule "\"ZeroWaitNetwork.sensor0.interfaceTable\""
par ZeroWaitNetwork.sensor0.lo[0].lo mtu 4470B
attr unit B
scalar ZeroWaitNetwork.sensor0.lo[0].lo rcvdPkFromHl:count 0
attr interpolationmode none
attr recordingmode count
attr source packetReceivedFromUpper
attr title "packets received from higher layer, count"
scalar ZeroWaitNetwork.sensor0.lo[0].lo rcvdPkFromHl:sum(packetBytes) 0
attr interpolationmode none
attr recordingmode sum(packetBytes)
attr source packetReceivedFromUpper
attr title "packets received from higher layer, sum(packetBytes)"
scalar ZeroWaitNetwork.sensor0.lo[0].lo passedUpPk:count 0
attr interpolationmode none
attr recordingmode count
attr source packetSentToUpper
attr title "packets passed to higher layer, count"
scalar ZeroWaitNetwork.sensor0.lo[0].lo passedUpPk:sum(packetBytes) 0
attr interpolationmode none
attr recordingmode sum(packetBytes)
attr source packetSentToUpper
attr title "packets passed to higher layer, sum(packetBytes)"
par ZeroWaitNetwork.sensor0.lo[0] typename "\"inet.linklayer.loopback.LoopbackInterface\""
par ZeroWaitNetwork.sensor0.lo[0] displayStringTextFormat "\"%a (%i)\\n%m\""
par ZeroWaitNetwork.sensor0.lo[0] recordPcap false
par ZeroWaitNetwork.sensor0.lo[0] numPcapRecorders 0
par ZeroWaitNetwork.sensor0.lo[0] interfaceTableModule "\"ZeroWaitNetwork.sensor0.interfaceTable\""
scalar ZeroWaitNetwork.sensor0.lo[0] packetDropInterfaceDown:count 0
attr interpolationmode none
attr recordingmode count
attr source packetDropReasonIsInterfaceDown(packetDropped)
attr title "packet drops: interface down, count"
scalar ZeroWaitNetwork.sensor0.lo[0] packetDropInterfaceDown:sum(packetBytes) 0
attr interpolationmode none
attr recordingmode sum(packetBytes)
attr source packetDropReasonIsInterfaceDown(packetDropped)
attr title "packet drops: interface down, sum(packetBytes)"
scalar ZeroWaitNetwork.sensor0.lo[0] packetDropNoCarrier:count 0
attr interpolationmode none
attr recordingmode count
attr source packetDropReasonIsNoCarrier(packetDropped)
attr title "packet drops: no carrier, count"
scalar ZeroWaitNetwork.sensor0.lo[0] packetDropNoCarrier:sum(packetBytes) 0
attr interpolationmode none
attr recordingmode sum(packetBytes)
attr source packetDropReasonIsNoCarrier(packetDropped)
attr title "packet drops: no carrier, sum(packetBytes)"
par ZeroWaitNetwork.sensor0.wlan[0].radioIn.channel typename "\"ned.IdealChannel\""
par ZeroWaitNetwork.sensor0.wlan[0].mac.upperLayerOut.channel typename "\"ned.IdealChannel\""
par ZeroWaitNetwork.sensor0.wlan[0].upperLayerIn.channel typename "\"ned.IdealChannel\""
par ZeroWaitNetwork.sensor0.wlan[0].queue typename "\"inet.queueing.queue.DropTailQueue\""
par ZeroWaitNetwork.sensor0.wlan[0].queue displayStringTextFormat "\"contains %p pk (%l) pushed %u\\npulled %o removed %r dropped %d\""
par ZeroWaitNetwork.sensor0.wlan[0].queue packetCapacity 10
par ZeroWaitNetwork.sensor0.wlan[0].queue dataCapacity -1b
attr unit b
par ZeroWaitNetwork.sensor0.wlan[0].queue dropperClass "\"inet::queueing::PacketAtCollectionEndDropper\""
par ZeroWaitNetwork.sensor0.wlan[0].queue comparatorClass "\"\""
par ZeroWaitNetwork.sensor0.wlan[0].queue bufferModule "\"\""
scalar ZeroWaitNetwork.sensor0.wlan[0].queue queueLength:last 0
attr autoWarmupFilter false
attr interpolationmode sample-hold
attr recordingmode last
attr source "warmup(atomic(constant0(packetPushEnded) + count(packetPushStarted) - count(packetPulled) - count(packetRemoved) - count(packetDropped)))"
attr title "queue length, last"
attr unit pk
scalar ZeroWaitNetwork.sensor0.wlan[0].queue queueLength:max 6
attr autoWarmupFilter false
attr interpolationmode sample-hold
attr recordingmode max
attr source "warmup(atomic(constant0(packetPushEnded) + count(packetPushStarted) - count(packetPulled) - count(packetRemoved) - count(packetDropped)))"
attr title "queue length, max"
attr unit pk
scalar ZeroWaitNetwork.sensor0.wlan[0].queue queueLength:timeavg 0.0025628307880635
attr autoWarmupFilter false
attr interpolationmode sample-hold
attr recordingmode timeavg
attr source "warmup(atomic(constant0(packetPushEnded) + count(packetPushStarted) - count(packetPulled) - count(packetRemoved) - count(packetDropped)))"
attr title "queue length, timeavg"
attr unit pk
scalar ZeroWaitNetwork.sensor0.wlan[0].queue queueBitLength:last 0
attr autoWarmupFilter false
attr interpolationmode sample-hold
attr recordingmode last
attr source "warmup(atomic(constant0(packetPushEnded) + sum(packetLength(packetPushStarted)) - sum(packetLength(packetPulled)) - sum(packetLength(packetRemoved)) - sum(packetLength(packetDropped))))"
attr title "queue bit length, last"
attr unit b
scalar ZeroWaitNetwork.sensor0.wlan[0].queue queueBitLength:max 1776
attr autoWarmupFilter false
attr interpolationmode sample-hold
attr recordingmode max
attr source "warmup(atomic(constant0(packetPushEnded) + sum(packetLength(packetPushStarted)) - sum(packetLength(packetPulled)) - sum(packetLength(packetRemoved)) - sum(packetLength(packetDropped))))"
attr title "queue bit length, max"
attr unit b
scalar ZeroWaitNetwork.sensor0.wlan[0].queue queueBitLength:timeavg 0.75859791326679
attr autoWarmupFilter false
attr interpolationmode sample-hold
attr recordingmode timeavg
attr source "warmup(atomic(constant0(packetPushEnded) + sum(packetLength(packetPushStarted)) - sum(packetLength(packetPulled)) - sum(packetLength(packetRemoved)) - sum(packetLength(packetDropped))))"
attr title "queue bit length, timeavg"
attr unit b
statistic ZeroWaitNetwork.sensor0.wlan[0].queue queueingTime:histogram
field count 66
field mean 0.00081172250413636
field stddev 0.0031383687653848
field min 0
field max 0.016295280314
field sum 0.053573685273
field sqrsum 0.00068369526895588
attr interpolationmode none
attr recordingmode histogram
attr source queueingTime(packetPulled)
attr title "queueing times"
attr unit s
bin	-inf	0
bin	0	61
bin	0.0002	0
bin	0.0004	0
bin	0.0006	0
bin	0.0008	0
bin	0.001	0
bin	0.0012	0
bin	0.0014	0
bin	0.0016	0
bin	0.0018	0
bin	0.002	0
bin	0.0022	0
bin	0.0024	0
bin	0.0026	0
bin	0.0028	0
bin	0.003	0
bin	0.0032	0
bin	0.0034	1
bin	0.0036	0
bin	0.0038	0
bin	0.004	0
bin	0.0042	0
bin	0.0044	0
bin	0.0046	0
bin	0.0048	0
bin	0.005	0
bin	0.0052	0
bin	0.0054	0
bin	0.0056	0
bin	0.0058	0
bin	0.006	0
bin	0.0062	0
bin	0.0064	0
bin	0.0066	0
bin	0.0068	0
bin	0.007	0
bin	0.0072	0
bin	0.0074	0
bin	0.0076	0
bin	0.0078	0
bin	0.008	0
bin	0.0082	1
bin	0.0084	0
bin	0.0086	0
bin	0.0088	0
bin	0.009	0
bin	0.0092	0
bin	0.0094	0
bin	0.0096	0
bin	0.0098	0
bin	0.01	1
bin	0.0102	0
bin	0.0104	0
bin	0.0106	0
bin	0.0108	0
bin	0.011	0
bin	0.0112	0
bin	0.0114	0
bin	0.0116	0
bin	0.0118	0
bin	0.012	0
bin	0.0122	0
bin	0.0124	0
bin	0.0126	0
bin	0.0128	0
bin	0.013	0
bin	0.0132	0
bin	0.0134	0
bin	0.0136	0
bin	0.0138	0
bin	0.014	0
bin	0.0142	0
bin	0.0144	0
bin	0.0146	0
bin	0.0148	0
bin	0.015	0
bin	0.0152	1
bin	0.0154	0
bin	0.0156	0
bin	0.0158	0
bin	0.016	0
bin	0.0162	1
bin	0.0164	0
bin	0.0166	0
bin	0.0168	0
bin	0.017	0
bin	0.0172	0
bin	0.0174	0
bin	0.0176	0
bin	0.0178	0
bin	0.018	0
bin	0.0182	0
bin	0.0184	0
bin	0.0186	0
bin	0.0188	0
bin	0.019	0
bin	0.0192	0
bin	0.0194	0
bin	0.0196	0
bin	0.0198	0
bin	0.02	0
bin	0.0202	0
bin	0.0204	0
scalar ZeroWaitNetwork.sensor0.wlan[0].queue outgoingPackets:count 66
attr recordingmode count
attr source packetPulled
attr title "outgoing packets, count"
attr unit pk
scalar ZeroWaitNetwork.sensor0.wlan[0].queue outgoingPacketLengths:sum 19392
attr interpolationmode none
attr recordingmode sum
attr source packetLength(packetPulled)
attr title "outgoing packet lengths, sum"
attr unit b
statistic ZeroWaitNetwork.sensor0.wlan[0].queue outgoingPacketLengths:histogram
field count 66
field mean 293.81818181818
field stddev 12.436805292121
field min 224
field max 296
field sum 19392
field sqrsum 5707776
attr interpolationmode none
attr recordingmode histogram
attr source packetLength(packetPulled)
attr title "outgoing packet lengths"
attr unit b
bin	-inf	0
bin	206	0
bin	208	0
bin	210	0
bin	212	0
bin	214	0
bin	216	0
bin	218	0
bin	220	0
bin	222	0
bin	224	2
bin	226	0
bin	228	0
bin	230	0
bin	232	0
bin	234	0
bin	236	0
bin	238	0
bin	240	0
bin	242	0
bin	244	0
bin	246	0
bin	248	0
bin	250	0
bin	252	0
bin	254	0
bin	256	0
bin	258	0
bin	260	0
bin	262	0
bin	264	0
bin	266	0
bin	268	0
bin	270	0
bin	272	0
bin	274	0
bin	276	0
bin	278	0
bin	280	0
bin	282	0
bin	284	0
bin	286	0
bin	288	0
bin	290	0
bin	292	0
bin	294	0
bin	296	64
bin	298	0
bin	300	0
bin	302	0
bin	304	0
bin	306	0
bin	308	0
bin	310	0
bin	312	0
bin	314	0
statistic ZeroWaitNetwork.sensor0.wlan[0].queue flowQueueingTime:histogram
field count 0
field mean nan
field stddev nan
field min nan
field max nan
field sum 0
field sqrsum 0
attr interpolationmode none
attr recordingmode histogram
attr source queueingTime(demuxFlow(packetPulled))
attr title "flow queueing times"
attr unit s
bin	-inf	0
bin	0	0
bin	1	0
scalar ZeroWaitNetwork.sensor0.wlan[0].queue incomingPackets:count 66
attr recordingmode count
attr source packetPushStarted
attr title "incoming packets, count"
attr unit pk
scalar ZeroWaitNetwork.sensor0.wlan[0].queue incomingPacketLengths:sum 19392
attr interpolationmode none
attr recordingmode sum
attr source packetLength(packetPushStarted)
attr title "incoming packet lengths, sum"
attr unit b
statistic ZeroWaitNetwork.sensor0.wlan[0].queue incomingPacketLengths:histogram
field count 66
field mean 293.81818181818
field stddev 12.436805292121
field min 224
field max 296
field sum 19392
field sqrsum 5707776
attr interpolationmode none
attr recordingmode histogram
attr source packetLength(packetPushStarted)
attr title "incoming packet lengths"
attr unit b
bin	-inf	0
bin	206	0
bin	208	0
bin	210	0
bin	212	0
bin	214	0
bin	216	0
bin	218	0
bin	220	0
bin	222	0
bin	224	2
bin	226	0
bin	228	0
bin	230	0
bin	232	0
bin	234	0
bin	236	0
bin	238	0
bin	240	0
bin	242	0
bin	244	0
bin	246	0
bin	248	0
bin	250	0
bin	252	0
bin	254	0
bin	256	0
bin	258	0
bin	260	0
bin	262	0
bin	264	0
bin	266	0
bin	268	0
bin	270	0
bin	272	0
bin	274	0
bin	276	0
bin	278	0
bin	280	0
bin	282	0
bin	284	0
bin	286	0
bin	288	0
bin	290	0
bin	292	0
bin	294	0
bin	296	64
bin	298	0
bin	300	0
bin	302	0
bin	304	0
bin	306	0
bin	308	0
bin	310	0
bin	312	0
bin	314	0
scalar ZeroWaitNetwork.sensor0.wlan[0].queue droppedPacketsQueueOverflow:count 0
attr interpolationmode none
attr recordingmode count
attr source packetDropReasonIsQueueOverflow(packetDropped)
attr title "dropped packets: queue overflow, count"
attr unit pk
scalar ZeroWaitNetwork.sensor0.wlan[0].queue droppedPacketLengthsQueueOverflow:sum 0
attr interpolationmode none
attr recordingmode sum
attr source packetLength(packetDropReasonIsQueueOverflow(packetDropped))
attr title "dropped packet lengths: queue overflow, sum"
attr unit b
par ZeroWaitNetwork.sensor0.wlan[0].mac typename "\"inet.linklayer.csmaca.CsmaCaMac\""
par ZeroWaitNetwork.sensor0.wlan[0].mac interfaceTableModule "\"ZeroWaitNetwork.sensor0.interfaceTable\""
par ZeroWaitNetwork.sensor0.wlan[0].mac radioModule "\"^.radio\""
par ZeroWaitNetwork.sensor0.wlan[0].mac address "\"auto\""
attr mutable ""
par ZeroWaitNetwork.sensor0.wlan[0].mac fcsMode "\"declared\""
attr enum declared,computed
par ZeroWaitNetwork.sensor0.wlan[0].mac useAck true
par ZeroWaitNetwork.sensor0.wlan[0].mac bitrate 1e+06bps
attr unit bps
par ZeroWaitNetwork.sensor0.wlan[0].mac headerLength 17B
attr unit B
par ZeroWaitNetwork.sensor0.wlan[0].mac ackLength 14B
attr unit B
par ZeroWaitNetwork.sensor0.wlan[0].mac sifsTime 1e-05s
attr unit s
par ZeroWaitNetwork.sensor0.wlan[0].mac slotTime 2e-05s
attr unit s
par ZeroWaitNetwork.sensor0.wlan[0].mac difsTime 5e-05s
attr unit s
par ZeroWaitNetwork.sensor0.wlan[0].mac ackTimeout 0.0003s
attr unit s
par ZeroWaitNetwork.sensor0.wlan[0].mac mtu 1500
par ZeroWaitNetwork.sensor0.wlan[0].mac cwMin 31
par ZeroWaitNetwork.sensor0.wlan[0].mac cwMax 1023
par ZeroWaitNetwork.sensor0.wlan[0].mac cwMulticast 31
par ZeroWaitNetwork.sensor0.wlan[0].mac retryLimit 7
scalar ZeroWaitNetwork.sensor0.wlan[0].mac numRetry 3
scalar ZeroWaitNetwork.sensor0.wlan[0].mac numSentWithoutRetry 61
scalar ZeroWaitNetwork.sensor0.wlan[0].mac numGivenUp 0
scalar ZeroWaitNetwork.sensor0.wlan[0].mac numCollision 12
scalar ZeroWaitNetwork.sensor0.wlan[0].mac numSent 64
scalar ZeroWaitNetwork.sensor0.wlan[0].mac numReceived 65
scalar ZeroWaitNetwork.sensor0.wlan[0].mac numSentBroadcast 2
scalar ZeroWaitNetwork.sensor0.wlan[0].mac numReceivedBroadcast 6
scalar ZeroWaitNetwork.sensor0.wlan[0].mac packetDropIncorrectlyReceived:count 12
attr interpolationmode none
attr recordingmode count
attr source packetDropReasonIsIncorrectlyReceived(packetDropped)
attr title "packet drop: incorrectly received, count"
scalar ZeroWaitNetwork.sensor0.wlan[0].mac packetDropIncorrectlyReceived:sum(packetBytes) 654
attr interpolationmode none
attr recordingmode sum(packetBytes)
attr source packetDropReasonIsIncorrectlyReceived(packetDropped)
attr title "packet drop: incorrectly received, sum(packetBytes)"
scalar ZeroWaitNetwork.sensor0.wlan[0].mac packetDropNotAddressedToUs:count 802
attr interpolationmode none
attr recordingmode count
attr source packetDropReasonIsNotAddressedToUs(packetDropped)
attr title "packet drop: not addressed to us, count"
scalar ZeroWaitNetwork.sensor0.wlan[0].mac packetDropNotAddressedToUs:sum(packetBytes) 44080
attr interpolationmode none
attr recordingmode sum(packetBytes)
attr source packetDropReasonIsNotAddressedToUs(packetDropped)
attr title "packet drop: not addressed to us, sum(packetBytes)"
scalar ZeroWaitNetwork.sensor0.wlan[0].mac packetDropQueueOverflow:count 0
attr interpolationmode none
attr recordingmode count
attr source packetDropReasonIsQueueOverflow(packetDropped)
attr title "packet drop: queue overflow, count"
scalar ZeroWaitNetwork.sensor0.wlan[0].mac packetDropQueueOverflow:sum(packetBytes) 0
attr interpolationmode none
attr recordingmode sum(packetBytes)
attr source packetDropReasonIsQueueOverflow(packetDropped)
attr title "packet drop: queue overflow, sum(packetBytes)"
scalar ZeroWaitNetwork.sensor0.wlan[0].mac packetDropRetryLimitReached:count 0
attr interpolationmode none
attr recordingmode count
attr source packetDropReasonIsRetryLimitReached(packetDropped)
attr title "packet drop: retry limit reached, count"
scalar ZeroWaitNetwork.sensor0.wlan[0].mac packetDropRetryLimitReached:sum(packetBytes) 0
attr interpolationmode none
attr recordingmode sum(packetBytes)
attr source packetDropReasonIsRetryLimitReached(packetDropped)
attr title "packet drop: retry limit reached, sum(packetBytes)"
scalar ZeroWaitNetwork.sensor0.wlan[0].mac linkBroken:count 0
attr interpolationmode none
attr recordingmode count
attr source linkBroken
attr title "link break, count"
par ZeroWaitNetwork.sensor0.wlan[0].radio.antenna typename "\"inet.physicallayer.wireless.common.antenna.IsotropicAntenna\""
par ZeroWaitNetwork.sensor0.wlan[0].radio.antenna mobilityModule "\"^.^.^.mobility\""
par ZeroWaitNetwork.sensor0.wlan[0].radio.antenna numAntennas 1
par ZeroWaitNetwork.sensor0.wlan[0].radio.transmitter typename "\"inet.physicallayer.wireless.unitdisk.UnitDiskTransmitter\""
par ZeroWaitNetwork.sensor0.wlan[0].radio.transmitter preambleDuration 0s
attr unit s
par ZeroWaitNetwork.sensor0.wlan[0].radio.transmitter headerLength 96b
attr unit b
par ZeroWaitNetwork.sensor0.wlan[0].radio.transmitter bitrate 1e+06bps
attr unit bps
par ZeroWaitNetwork.sensor0.wlan[0].radio.transmitter communicationRange 500m
attr unit m
par ZeroWaitNetwork.sensor0.wlan[0].radio.transmitter interferenceRange 500m
attr unit m
par ZeroWaitNetwork.sensor0.wlan[0].radio.transmitter detectionRange 500m
attr unit m
par ZeroWaitNetwork.sensor0.wlan[0].radio.receiver typename "\"inet.physicallayer.wireless.unitdisk.UnitDiskReceiver\""
par ZeroWaitNetwork.sensor0.wlan[0].radio.receiver ignoreInterference false
par ZeroWaitNetwork.sensor0.wlan[0].radio typename "\"inet.physicallayer.wireless.unitdisk.UnitDiskRadio\""
par ZeroWaitNetwork.sensor0.wlan[0].radio radioMediumModule "\"radioMedium\""
par ZeroWaitNetwork.sensor0.wlan[0].radio energySourceModule "\"\""
par ZeroWaitNetwork.sensor0.wlan[0].radio initialRadioMode "\"off\""
attr enum off,sleep,receiver,transmitter,transceiver
par ZeroWaitNetwork.sensor0.wlan[0].radio switchingTimes "\"ms 0 0 0 0 0 0 0 0 0 0 0 0 0 0 0 0 0 0 0 0 0 0 0 0 0\""
par ZeroWaitNetwork.sensor0.wlan[0].radio sendRawBytes false
par ZeroWaitNetwork.sensor0.wlan[0].radio separateTransmissionParts false
par ZeroWaitNetwork.sensor0.wlan[0].radio separateReceptionParts false
par ZeroWaitNetwork.sensor0.wlan[0].radio displayCommunicationRange false
par ZeroWaitNetwork.sensor0.wlan[0].radio displayInterferenceRange false
statistic ZeroWaitNetwork.sensor0.wlan[0].radio minSnir:histogram
field count 0
field mean nan
field stddev nan
field min nan
field max nan
field sum 0
field sqrsum 0
attr recordingmode histogram
attr source minimumSnir(packetSentToUpper)
attr title "Min SNIR"
bin	-inf	0
bin	0	0
bin	1	0
statistic ZeroWaitNetwork.sensor0.wlan[0].radio packetErrorRate:histogram
field count 1750
field mean 0.0068571428571429
field stddev 0.082547054293335
field min 0
field max 1
field sum 12
field sqrsum 12
attr recordingmode histogram
attr source packetErrorRate(packetSentToUpper)
attr title "Packet error rate"
bin	-inf	0
bin	0	1738
bin	1	12
bin	2	0
statistic ZeroWaitNetwork.sensor0.wlan[0].radio bitErrorRate:histogram
field count 1750
field mean 0.0068571428571429
field stddev 0.082547054293335
field min 0
field max 1
field sum 12
field sqrsum 12
attr recordingmode histogram
attr source bitErrorRate(packetSentToUpper)
attr title "Bit error rate"
bin	-inf	0
bin	0	1738
bin	1	12
bin	2	0
statistic ZeroWaitNetwork.sensor0.wlan[0].radio symbolErrorRate:histogram
field count 1750
field mean 0.0068571428571429
field stddev 0.082547054293335
field min 0
field max 1
field sum 12
field sqrsum 12
attr recordingmode histogram
attr source symbolErrorRate(packetSentToUpper)
attr title "Symbol error rate"
bin	-inf	0
bin	0	1738
bin	1	12
bin	2	0
scalar ZeroWaitNetwork.sensor0.wlan[0].radio transmissionState:count 536
attr interpolationmode sample-hold
attr recordingmode count
attr source transmissionStateChanged
attr title "Radio transmission state, count"
scalar ZeroWaitNetwork.sensor0.wlan[0].radio receptionState:count 3782
attr interpolationmode sample-hold
attr recordingmode count
attr source receptionStateChanged
attr title "Radio reception state, count"
scalar ZeroWaitNetwork.sensor0.wlan[0].radio radioMode:count 271
attr interpolationmode sample-hold
attr recordingmode count
attr source radioModeChanged
attr title "Radio mode, count"
par ZeroWaitNetwork.sensor0.wlan[0] typename "\"inet.linklayer.common.WirelessInterface\""
par ZeroWaitNetwork.sensor0.wlan[0] displayStringTextFormat "\"%a (%i)\\n%m\""
par ZeroWaitNetwork.sensor0.wlan[0] recordPcap false
par ZeroWaitNetwork.sensor0.wlan[0] numPcapRecorders 0
par ZeroWaitNetwork.sensor0.wlan[0] interfaceTableModule "\"ZeroWaitNetwork.sensor0.interfaceTable\""
par ZeroWaitNetwork.sensor0.wlan[0] energySourceModule "\"\""
par ZeroWaitNetwork.sensor0.wlan[0] protocol "\"\""
scalar ZeroWaitNetwork.sensor0.wlan[0] packetDropInterfaceDown:count 0
attr interpolationmode none
attr recordingmode count
attr source packetDropReasonIsInterfaceDown(packetDropped)
attr title "packet drops: interface down, count"
scalar ZeroWaitNetwork.sensor0.wlan[0] packetDropInterfaceDown:sum(packetBytes) 0
attr interpolationmode none
attr recordingmode sum(packetBytes)
attr source packetDropReasonIsInterfaceDown(packetDropped)
attr title "packet drops: interface down, sum(packetBytes)"
scalar ZeroWaitNetwork.sensor0.wlan[0] packetDropNoCarrier:count 0
attr interpolationmode none
attr recordingmode count
attr source packetDropReasonIsNoCarrier(packetDropped)
attr title "packet drops: no carrier, count"
scalar ZeroWaitNetwork.sensor0.wlan[0] packetDropNoCarrier:sum(packetBytes) 0
attr interpolationmode none
attr recordingmode sum(packetBytes)
attr source packetDropReasonIsNoCarrier(packetDropped)
attr title "packet drops: no carrier, sum(packetBytes)"
par ZeroWaitNetwork.sensor0.ipv4.transportIn.channel typename "\"ned.IdealChannel\""
par ZeroWaitNetwork.sensor0.ipv4.up.out[0].channel typename "\"ned.IdealChannel\""
par ZeroWaitNetwork.sensor0.ipv4.lp.out[2].channel typename "\"ned.IdealChannel\""
par ZeroWaitNetwork.sensor0.ipv4.ifIn.channel typename "\"ned.IdealChannel\""
par ZeroWaitNetwork.sensor0.ipv4.configurator typename "\"inet.networklayer.configurator.ipv4.Ipv4NodeConfigurator\""
par ZeroWaitNetwork.sensor0.ipv4.configurator interfaceTableModule "\"ZeroWaitNetwork.sensor0.interfaceTable\""
par ZeroWaitNetwork.sensor0.ipv4.configurator routingTableModule "\"ZeroWaitNetwork.sensor0.ipv4.routingTable\""
par ZeroWaitNetwork.sensor0.ipv4.configurator networkConfiguratorModule "\"configurator\""
par ZeroWaitNetwork.sensor0.ipv4.configurator configureRoutingTable true
par ZeroWaitNetwork.sensor0.ipv4.routingTable typename "\"inet.networklayer.ipv4.Ipv4RoutingTable\""
par ZeroWaitNetwork.sensor0.ipv4.routingTable interfaceTableModule "\"ZeroWaitNetwork.sensor0.interfaceTable\""
par ZeroWaitNetwork.sensor0.ipv4.routingTable routerId "\"auto\""
par ZeroWaitNetwork.sensor0.ipv4.routingTable netmaskRoutes "\"*\""
par ZeroWaitNetwork.sensor0.ipv4.routingTable forwarding false
par ZeroWaitNetwork.sensor0.ipv4.routingTable multicastForwarding false
par ZeroWaitNetwork.sensor0.ipv4.routingTable useAdminDist false
par ZeroWaitNetwork.sensor0.ipv4.routingTable routingFile "\"\""
par ZeroWaitNetwork.sensor0.ipv4.natTable typename "\"inet.networklayer.ipv4.Ipv4NatTable\""
par ZeroWaitNetwork.sensor0.ipv4.natTable networkProtocolModule "\"^.ip\""
par ZeroWaitNetwork.sensor0.ipv4.natTable config "<config/> at content:1"
par ZeroWaitNetwork.sensor0.ipv4.up typename "\"inet.common.MessageDispatcher\""
par ZeroWaitNetwork.sensor0.ipv4.up displayStringTextFormat "\"processed %p pk (%l)\""
par ZeroWaitNetwork.sensor0.ipv4.up forwardServiceRegistration true
par ZeroWaitNetwork.sensor0.ipv4.up forwardProtocolRegistration true
par ZeroWaitNetwork.sensor0.ipv4.igmp typename "\"inet.networklayer.ipv4.Igmpv2\""
par ZeroWaitNetwork.sensor0.ipv4.igmp interfaceTableModule "\"ZeroWaitNetwork.sensor0.interfaceTable\""
par ZeroWaitNetwork.sensor0.ipv4.igmp routingTableModule "\"ZeroWaitNetwork.sensor0.ipv4.routingTable\""
par ZeroWaitNetwork.sensor0.ipv4.igmp crcMode "\"declared\""
attr enum declared,computed
par ZeroWaitNetwork.sensor0.ipv4.igmp enabled true
par ZeroWaitNetwork.sensor0.ipv4.igmp robustnessVariable 2
par ZeroWaitNetwork.sensor0.ipv4.igmp queryInterval 125s
attr unit s
par ZeroWaitNetwork.sensor0.ipv4.igmp queryResponseInterval 10s
attr unit s
par ZeroWaitNetwork.sensor0.ipv4.igmp groupMembershipInterval 260s
attr unit s
par ZeroWaitNetwork.sensor0.ipv4.igmp otherQuerierPresentInterval 255s
attr unit s
par ZeroWaitNetwork.sensor0.ipv4.igmp startupQueryInterval 31.25s
attr unit s
par ZeroWaitNetwork.sensor0.ipv4.igmp startupQueryCount 2
par ZeroWaitNetwork.sensor0.ipv4.igmp lastMemberQueryInterval 1s
attr unit s
par ZeroWaitNetwork.sensor0.ipv4.igmp lastMemberQueryCount 2
par ZeroWaitNetwork.sensor0.ipv4.igmp unsolicitedReportInterval 10s
attr unit s
par ZeroWaitNetwork.sensor0.ipv4.icmp typename "\"inet.networklayer.ipv4.Icmp\""
par ZeroWaitNetwork.sensor0.ipv4.icmp interfaceTableModule "\"ZeroWaitNetwork.sensor0.interfaceTable\""
par ZeroWaitNetwork.sensor0.ipv4.icmp routingTableModule "\"ZeroWaitNetwork.sensor0.ipv4.routingTable\""
par ZeroWaitNetwork.sensor0.ipv4.icmp crcMode "\"declared\""
attr enum declared,computed
attr mutable ""
par ZeroWaitNetwork.sensor0.ipv4.icmp quoteLength 8B
attr mutable ""
attr unit B
par ZeroWaitNetwork.sensor0.ipv4.mp typename "\"inet.common.MessageDispatcher\""
par ZeroWaitNetwork.sensor0.ipv4.mp displayStringTextFormat "\"processed %p pk (%l)\""
par ZeroWaitNetwork.sensor0.ipv4.mp forwardServiceRegistration true
par ZeroWaitNetwork.sensor0.ipv4.mp forwardProtocolRegistration true
par ZeroWaitNetwork.sensor0.ipv4.ip typename "\"inet.networklayer.ipv4.Ipv4\""
par ZeroWaitNetwork.sensor0.ipv4.ip interfaceTableModule "\"ZeroWaitNetwork.sensor0.interfaceTable\""
par ZeroWaitNetwork.sensor0.ipv4.ip routingTableModule "\"ZeroWaitNetwork.sensor0.ipv4.routingTable\""
par ZeroWaitNetwork.sensor0.ipv4.ip arpModule "\"ZeroWaitNetwork.sensor0.ipv4.arp\""
par ZeroWaitNetwork.sensor0.ipv4.ip icmpModule "\"ZeroWaitNetwork.sensor0.ipv4.icmp\""
par ZeroWaitNetwork.sensor0.ipv4.ip crcMode "\"declared\""
attr enum declared,computed
par ZeroWaitNetwork.sensor0.ipv4.ip timeToLive 32
par ZeroWaitNetwork.sensor0.ipv4.ip multicastTimeToLive 32
par ZeroWaitNetwork.sensor0.ipv4.ip fragmentTimeout 60s
attr unit s
par ZeroWaitNetwork.sensor0.ipv4.ip limitedBroadcast false
par ZeroWaitNetwork.sensor0.ipv4.ip directBroadcastInterfaces "\"\""
scalar ZeroWaitNetwork.sensor0.ipv4.ip packetDropAddressResolutionFailed:count 0
attr interpolationmode none
attr recordingmode count
attr source packetDropReasonIsAddressResolutionFailed(packetDropped)
attr title "packet drop: address resolution failed, count"
scalar ZeroWaitNetwork.sensor0.ipv4.ip packetDropAddressResolutionFailed:sum(packetBytes) 0
attr interpolationmode none
attr recordingmode sum(packetBytes)
attr source packetDropReasonIsAddressResolutionFailed(packetDropped)
attr title "packet drop: address resolution failed, sum(packetBytes)"
scalar ZeroWaitNetwork.sensor0.ipv4.ip packetDropHopLimitReached:count 0
attr interpolationmode none
attr recordingmode count
attr source packetDropReasonIsHopLimitReached(packetDropped)
attr title "packet drop: hop limit reached, count"
scalar ZeroWaitNetwork.sensor0.ipv4.ip packetDropHopLimitReached:sum(packetBytes) 0
attr interpolationmode none
attr recordingmode sum(packetBytes)
attr source packetDropReasonIsHopLimitReached(packetDropped)
attr title "packet drop: hop limit reached, sum(packetBytes)"
scalar ZeroWaitNetwork.sensor0.ipv4.ip packetDropForwardingDisabled:count 0
attr interpolationmode none
attr recordingmode count
attr source packetDropReasonIsForwardingDisabled(packetDropped)
attr title "packet drop: forwarding disabled, count"
scalar ZeroWaitNetwork.sensor0.ipv4.ip packetDropForwardingDisabled:sum(packetBytes) 0
attr interpolationmode none
attr recordingmode sum(packetBytes)
attr source packetDropReasonIsForwardingDisabled(packetDropped)
attr title "packet drop: forwarding disabled, sum(packetBytes)"
scalar ZeroWaitNetwork.sensor0.ipv4.ip packetDropNoInterfaceFound:count 0
attr interpolationmode none
attr recordingmode count
attr source packetDropReasonIsNoInterfaceFound(packetDropped)
attr title "packet drop: no interface found, count"
scalar ZeroWaitNetwork.sensor0.ipv4.ip packetDropNoInterfaceFound:sum(packetBytes) 0
attr interpolationmode none
attr recordingmode sum(packetBytes)
attr source packetDropReasonIsNoInterfaceFound(packetDropped)
attr title "packet drop: no interface found, sum(packetBytes)"
scalar ZeroWaitNetwork.sensor0.ipv4.ip packetDropNoRouteFound:count 0
attr interpolationmode none
attr recordingmode count
attr source packetDropReasonIsNoRouteFound(packetDropped)
attr title "packet drop: no route found, count"
scalar ZeroWaitNetwork.sensor0.ipv4.ip packetDropNoRouteFound:sum(packetBytes) 0
attr interpolationmode none
attr recordingmode sum(packetBytes)
attr source packetDropReasonIsNoRouteFound(packetDropped)
attr title "packet drop: no route found, sum(packetBytes)"
scalar ZeroWaitNetwork.sensor0.ipv4.ip packetDropUndefined:count 0
attr interpolationmode none
attr recordingmode count
attr source packetDropReasonIsUndefined(packetDropped)
attr title "packet drop: undefined, count"
scalar ZeroWaitNetwork.sensor0.ipv4.ip packetDropUndefined:sum(packetBytes) 0
attr interpolationmode none
attr recordingmode sum(packetBytes)
attr source packetDropReasonIsUndefined(packetDropped)
attr title "packet drop: undefined, sum(packetBytes)"
par ZeroWaitNetwork.sensor0.ipv4.arp typename "\"inet.networklayer.arp.ipv4.Arp\""
par ZeroWaitNetwork.sensor0.ipv4.arp interfaceTableModule "\"ZeroWaitNetwork.sensor0.interfaceTable\""
par ZeroWaitNetwork.sensor0.ipv4.arp routingTableModule "\"ZeroWaitNetwork.sensor0.ipv4.routingTable\""
par ZeroWaitNetwork.sensor0.ipv4.arp retryTimeout 1s
attr unit s
par ZeroWaitNetwork.sensor0.ipv4.arp retryCount 3
par ZeroWaitNetwork.sensor0.ipv4.arp cacheTimeout 120s
attr unit s
par ZeroWaitNetwork.sensor0.ipv4.arp proxyArpInterfaces "\"\""
scalar ZeroWaitNetwork.sensor0.ipv4.arp arpReplySent:count 0
attr recordingmode count
attr source arpReplySent
attr title "ARP replies sent, count"
scalar ZeroWaitNetwork.sensor0.ipv4.arp arpReplySent:sum(packetBytes) 0
attr recordingmode sum(packetBytes)
attr source arpReplySent
attr title "ARP replies sent, sum(packetBytes)"
scalar ZeroWaitNetwork.sensor0.ipv4.arp arpRequestSent:count 2
[...]
par ZeroWaitNetwork.sensor6.wlan[0].radio displayCommunicationRange false
par ZeroWaitNetwork.sensor6.wlan[0].radio displayInterferenceRange false
statistic ZeroWaitNetwork.sensor6.wlan[0].radio minSnir:histogram
field count 0
field mean nan
field stddev nan
field min nan
field max nan
field sum 0
field sqrsum 0
attr recordingmode histogram
attr source minimumSnir(packetSentToUpper)
attr title "Min SNIR"
bin	-inf	0
bin	0	0
bin	1	0
statistic ZeroWaitNetwork.sensor6.wlan[0].radio packetErrorRate:histogram
field count 1750
field mean 0.0074285714285714
field stddev 0.085892977178271
field min 0
field max 1
field sum 13
field sqrsum 13
attr recordingmode histogram
attr source packetErrorRate(packetSentToUpper)
attr title "Packet error rate"
bin	-inf	0
bin	0	1737
bin	1	13
bin	2	0
statistic ZeroWaitNetwork.sensor6.wlan[0].radio bitErrorRate:histogram
field count 1750
field mean 0.0074285714285714
field stddev 0.085892977178271
field min 0
field max 1
field sum 13
field sqrsum 13
attr recordingmode histogram
attr source bitErrorRate(packetSentToUpper)
attr title "Bit error rate"
bin	-inf	0
bin	0	1737
bin	1	13
bin	2	0
statistic ZeroWaitNetwork.sensor6.wlan[0].radio symbolErrorRate:histogram
field count 1750
field mean 0.0074285714285714
field stddev 0.085892977178271
field min 0
field max 1
field sum 13
field sqrsum 13
attr recordingmode histogram
attr source symbolErrorRate(packetSentToUpper)
attr title "Symbol error rate"
bin	-inf	0
bin	0	1737
bin	1	13
bin	2	0
scalar ZeroWaitNetwork.sensor6.wlan[0].radio transmissionState:count 536
attr interpolationmode sample-hold
attr recordingmode count
attr source transmissionStateChanged
attr title "Radio transmission state, count"
scalar ZeroWaitNetwork.sensor6.wlan[0].radio receptionState:count 3783
attr interpolationmode sample-hold
attr recordingmode count
attr source receptionStateChanged
attr title "Radio reception state, count"
scalar ZeroWaitNetwork.sensor6.wlan[0].radio radioMode:count 271
attr interpolationmode sample-hold
attr recordingmode count
attr source radioModeChanged
attr title "Radio mode, count"
par ZeroWaitNetwork.sensor6.wlan[0] typename "\"inet.linklayer.common.WirelessInterface\""
par ZeroWaitNetwork.sensor6.wlan[0] displayStringTextFormat "\"%a (%i)\\n%m\""
par ZeroWaitNetwork.sensor6.wlan[0] recordPcap false
par ZeroWaitNetwork.sensor6.wlan[0] numPcapRecorders 0
par ZeroWaitNetwork.sensor6.wlan[0] interfaceTableModule "\"ZeroWaitNetwork.sensor6.interfaceTable\""
par ZeroWaitNetwork.sensor6.wlan[0] energySourceModule "\"\""
par ZeroWaitNetwork.sensor6.wlan[0] protocol "\"\""
scalar ZeroWaitNetwork.sensor6.wlan[0] packetDropInterfaceDown:count 0
attr interpolationmode none
attr recordingmode count
attr source packetDropReasonIsInterfaceDown(packetDropped)
attr title "packet drops: interface down, count"
scalar ZeroWaitNetwork.sensor6.wlan[0] packetDropInterfaceDown:sum(packetBytes) 0
attr interpolationmode none
attr recordingmode sum(packetBytes)
attr source packetDropReasonIsInterfaceDown(packetDropped)
attr title "packet drops: interface down, sum(packetBytes)"
scalar ZeroWaitNetwork.sensor6.wlan[0] packetDropNoCarrier:count 0
attr interpolationmode none
attr recordingmode count
attr source packetDropReasonIsNoCarrier(packetDropped)
attr title "packet drops: no carrier, count"
scalar ZeroWaitNetwork.sensor6.wlan[0] packetDropNoCarrier:sum(packetBytes) 0
attr interpolationmode none
attr recordingmode sum(packetBytes)
attr source packetDropReasonIsNoCarrier(packetDropped)
attr title "packet drops: no carrier, sum(packetBytes)"
par ZeroWaitNetwork.sensor6.ipv4.transportIn.channel typename "\"ned.IdealChannel\""
par ZeroWaitNetwork.sensor6.ipv4.up.out[0].channel typename "\"ned.IdealChannel\""
par ZeroWaitNetwork.sensor6.ipv4.lp.out[2].channel typename "\"ned.IdealChannel\""
par ZeroWaitNetwork.sensor6.ipv4.ifIn.channel typename "\"ned.IdealChannel\""
par ZeroWaitNetwork.sensor6.ipv4.configurator typename "\"inet.networklayer.configurator.ipv4.Ipv4NodeConfigurator\""
par ZeroWaitNetwork.sensor6.ipv4.configurator interfaceTableModule "\"ZeroWaitNetwork.sensor6.interfaceTable\""
par ZeroWaitNetwork.sensor6.ipv4.configurator routingTableModule "\"ZeroWaitNetwork.sensor6.ipv4.routingTable\""
par ZeroWaitNetwork.sensor6.ipv4.configurator networkConfiguratorModule "\"configurator\""
par ZeroWaitNetwork.sensor6.ipv4.configurator configureRoutingTable true
par ZeroWaitNetwork.sensor6.ipv4.routingTable typename "\"inet.networklayer.ipv4.Ipv4RoutingTable\""
par ZeroWaitNetwork.sensor6.ipv4.routingTable interfaceTableModule "\"ZeroWaitNetwork.sensor6.interfaceTable\""
par ZeroWaitNetwork.sensor6.ipv4.routingTable routerId "\"auto\""
par ZeroWaitNetwork.sensor6.ipv4.routingTable netmaskRoutes "\"*\""
par ZeroWaitNetwork.sensor6.ipv4.routingTable forwarding false
par ZeroWaitNetwork.sensor6.ipv4.routingTable multicastForwarding false
par ZeroWaitNetwork.sensor6.ipv4.routingTable useAdminDist false
par ZeroWaitNetwork.sensor6.ipv4.routingTable routingFile "\"\""
par ZeroWaitNetwork.sensor6.ipv4.natTable typename "\"inet.networklayer.ipv4.Ipv4NatTable\""
par ZeroWaitNetwork.sensor6.ipv4.natTable networkProtocolModule "\"^.ip\""
par ZeroWaitNetwork.sensor6.ipv4.natTable config "<config/> at content:1"
par ZeroWaitNetwork.sensor6.ipv4.up typename "\"inet.common.MessageDispatcher\""
par ZeroWaitNetwork.sensor6.ipv4.up displayStringTextFormat "\"processed %p pk (%l)\""
par ZeroWaitNetwork.sensor6.ipv4.up forwardServiceRegistration true
par ZeroWaitNetwork.sensor6.ipv4.up forwardProtocolRegistration true
par ZeroWaitNetwork.sensor6.ipv4.igmp typename "\"inet.networklayer.ipv4.Igmpv2\""
par ZeroWaitNetwork.sensor6.ipv4.igmp interfaceTableModule "\"ZeroWaitNetwork.sensor6.interfaceTable\""
par ZeroWaitNetwork.sensor6.ipv4.igmp routingTableModule "\"ZeroWaitNetwork.sensor6.ipv4.routingTable\""
par ZeroWaitNetwork.sensor6.ipv4.igmp crcMode "\"declared\""
attr enum declared,computed
par ZeroWaitNetwork.sensor6.ipv4.igmp enabled true
par ZeroWaitNetwork.sensor6.ipv4.igmp robustnessVariable 2
par ZeroWaitNetwork.sensor6.ipv4.igmp queryInterval 125s
attr unit s
par ZeroWaitNetwork.sensor6.ipv4.igmp queryResponseInterval 10s
attr unit s
par ZeroWaitNetwork.sensor6.ipv4.igmp groupMembershipInterval 260s
attr unit s
par ZeroWaitNetwork.sensor6.ipv4.igmp otherQuerierPresentInterval 255s
attr unit s
par ZeroWaitNetwork.sensor6.ipv4.igmp startupQueryInterval 31.25s
attr unit s
par ZeroWaitNetwork.sensor6.ipv4.igmp startupQueryCount 2
par ZeroWaitNetwork.sensor6.ipv4.igmp lastMemberQueryInterval 1s
attr unit s
par ZeroWaitNetwork.sensor6.ipv4.igmp lastMemberQueryCount 2
par ZeroWaitNetwork.sensor6.ipv4.igmp unsolicitedReportInterval 10s
attr unit s
par ZeroWaitNetwork.sensor6.ipv4.icmp typename "\"inet.networklayer.ipv4.Icmp\""
par ZeroWaitNetwork.sensor6.ipv4.icmp interfaceTableModule "\"ZeroWaitNetwork.sensor6.interfaceTable\""
par ZeroWaitNetwork.sensor6.ipv4.icmp routingTableModule "\"ZeroWaitNetwork.sensor6.ipv4.routingTable\""
par ZeroWaitNetwork.sensor6.ipv4.icmp crcMode "\"declared\""
attr enum declared,computed
attr mutable ""
par ZeroWaitNetwork.sensor6.ipv4.icmp quoteLength 8B
attr mutable ""
attr unit B
par ZeroWaitNetwork.sensor6.ipv4.mp typename "\"inet.common.MessageDispatcher\""
par ZeroWaitNetwork.sensor6.ipv4.mp displayStringTextFormat "\"processed %p pk (%l)\""
par ZeroWaitNetwork.sensor6.ipv4.mp forwardServiceRegistration true
par ZeroWaitNetwork.sensor6.ipv4.mp forwardProtocolRegistration true
par ZeroWaitNetwork.sensor6.ipv4.ip typename "\"inet.networklayer.ipv4.Ipv4\""
par ZeroWaitNetwork.sensor6.ipv4.ip interfaceTableModule "\"ZeroWaitNetwork.sensor6.interfaceTable\""
par ZeroWaitNetwork.sensor6.ipv4.ip routingTableModule "\"ZeroWaitNetwork.sensor6.ipv4.routingTable\""
par ZeroWaitNetwork.sensor6.ipv4.ip arpModule "\"ZeroWaitNetwork.sensor6.ipv4.arp\""
par ZeroWaitNetwork.sensor6.ipv4.ip icmpModule "\"ZeroWaitNetwork.sensor6.ipv4.icmp\""
par ZeroWaitNetwork.sensor6.ipv4.ip crcMode "\"declared\""
attr enum declared,computed
par ZeroWaitNetwork.sensor6.ipv4.ip timeToLive 32
par ZeroWaitNetwork.sensor6.ipv4.ip multicastTimeToLive 32
par ZeroWaitNetwork.sensor6.ipv4.ip fragmentTimeout 60s
attr unit s
par ZeroWaitNetwork.sensor6.ipv4.ip limitedBroadcast false
par ZeroWaitNetwork.sensor6.ipv4.ip directBroadcastInterfaces "\"\""
scalar ZeroWaitNetwork.sensor6.ipv4.ip packetDropAddressResolutionFailed:count 0
attr interpolationmode none
attr recordingmode count
attr source packetDropReasonIsAddressResolutionFailed(packetDropped)
attr title "packet drop: address resolution failed, count"
scalar ZeroWaitNetwork.sensor6.ipv4.ip packetDropAddressResolutionFailed:sum(packetBytes) 0
attr interpolationmode none
attr recordingmode sum(packetBytes)
attr source packetDropReasonIsAddressResolutionFailed(packetDropped)
attr title "packet drop: address resolution failed, sum(packetBytes)"
scalar ZeroWaitNetwork.sensor6.ipv4.ip packetDropHopLimitReached:count 0
attr interpolationmode none
attr recordingmode count
attr source packetDropReasonIsHopLimitReached(packetDropped)
attr title "packet drop: hop limit reached, count"
scalar ZeroWaitNetwork.sensor6.ipv4.ip packetDropHopLimitReached:sum(packetBytes) 0
attr interpolationmode none
attr recordingmode sum(packetBytes)
attr source packetDropReasonIsHopLimitReached(packetDropped)
attr title "packet drop: hop limit reached, sum(packetBytes)"
scalar ZeroWaitNetwork.sensor6.ipv4.ip packetDropForwardingDisabled:count 0
attr interpolationmode none
attr recordingmode count
attr source packetDropReasonIsForwardingDisabled(packetDropped)
attr title "packet drop: forwarding disabled, count"
scalar ZeroWaitNetwork.sensor6.ipv4.ip packetDropForwardingDisabled:sum(packetBytes) 0
attr interpolationmode none
attr recordingmode sum(packetBytes)
attr source packetDropReasonIsForwardingDisabled(packetDropped)
attr title "packet drop: forwarding disabled, sum(packetBytes)"
scalar ZeroWaitNetwork.sensor6.ipv4.ip packetDropNoInterfaceFound:count 0
attr interpolationmode none
attr recordingmode count
attr source packetDropReasonIsNoInterfaceFound(packetDropped)
attr title "packet drop: no interface found, count"
scalar ZeroWaitNetwork.sensor6.ipv4.ip packetDropNoInterfaceFound:sum(packetBytes) 0
attr interpolationmode none
attr recordingmode sum(packetBytes)
attr source packetDropReasonIsNoInterfaceFound(packetDropped)
attr title "packet drop: no interface found, sum(packetBytes)"
scalar ZeroWaitNetwork.sensor6.ipv4.ip packetDropNoRouteFound:count 0
attr interpolationmode none
attr recordingmode count
attr source packetDropReasonIsNoRouteFound(packetDropped)
attr title "packet drop: no route found, count"
scalar ZeroWaitNetwork.sensor6.ipv4.ip packetDropNoRouteFound:sum(packetBytes) 0
attr interpolationmode none
attr recordingmode sum(packetBytes)
attr source packetDropReasonIsNoRouteFound(packetDropped)
attr title "packet drop: no route found, sum(packetBytes)"
scalar ZeroWaitNetwork.sensor6.ipv4.ip packetDropUndefined:count 0
attr interpolationmode none
attr recordingmode count
attr source packetDropReasonIsUndefined(packetDropped)
attr title "packet drop: undefined, count"
scalar ZeroWaitNetwork.sensor6.ipv4.ip packetDropUndefined:sum(packetBytes) 0
attr interpolationmode none
attr recordingmode sum(packetBytes)
attr source packetDropReasonIsUndefined(packetDropped)
attr title "packet drop: undefined, sum(packetBytes)"
par ZeroWaitNetwork.sensor6.ipv4.arp typename "\"inet.networklayer.arp.ipv4.Arp\""
par ZeroWaitNetwork.sensor6.ipv4.arp interfaceTableModule "\"ZeroWaitNetwork.sensor6.interfaceTable\""
par ZeroWaitNetwork.sensor6.ipv4.arp routingTableModule "\"ZeroWaitNetwork.sensor6.ipv4.routingTable\""
par ZeroWaitNetwork.sensor6.ipv4.arp retryTimeout 1s
attr unit s
par ZeroWaitNetwork.sensor6.ipv4.arp retryCount 3
par ZeroWaitNetwork.sensor6.ipv4.arp cacheTimeout 120s
attr unit s
par ZeroWaitNetwork.sensor6.ipv4.arp proxyArpInterfaces "\"\""
scalar ZeroWaitNetwork.sensor6.ipv4.arp arpReplySent:count 0
attr recordingmode count
attr source arpReplySent
attr title "ARP replies sent, count"
scalar ZeroWaitNetwork.sensor6.ipv4.arp arpReplySent:sum(packetBytes) 0
attr recordingmode sum(packetBytes)
attr source arpReplySent
attr title "ARP replies sent, sum(packetBytes)"
scalar ZeroWaitNetwork.sensor6.ipv4.arp arpRequestSent:count 1
attr recordingmode count
attr source arpRequestSent
attr title "ARP request sent, count"
scalar ZeroWaitNetwork.sensor6.ipv4.arp arpRequestSent:sum(packetBytes) 28
attr recordingmode sum(packetBytes)
attr source arpRequestSent
attr title "ARP request sent, sum(packetBytes)"
scalar ZeroWaitNetwork.sensor6.ipv4.arp arpResolutionFailed:count 0
attr recordingmode count
attr title "ARP failed resolutions, count"
scalar ZeroWaitNetwork.sensor6.ipv4.arp arpResolutionCompleted:count 1
attr recordingmode count
attr title "ARP completed resolutions, count"
scalar ZeroWaitNetwork.sensor6.ipv4.arp arpResolutionInitiated:count 1
attr recordingmode count
attr title "ARP initiated resolutions, count"
par ZeroWaitNetwork.sensor6.ipv4.lp typename "\"inet.common.MessageDispatcher\""
par ZeroWaitNetwork.sensor6.ipv4.lp displayStringTextFormat "\"processed %p pk (%l)\""
par ZeroWaitNetwork.sensor6.ipv4.lp forwardServiceRegistration true
par ZeroWaitNetwork.sensor6.ipv4.lp forwardProtocolRegistration true
par ZeroWaitNetwork.sensor6.ipv4 typename "\"inet.networklayer.ipv4.Ipv4NetworkLayer\""
par ZeroWaitNetwork.sensor6.ipv4 forwarding false
par ZeroWaitNetwork.sensor6.ipv4 multicastForwarding false
par ZeroWaitNetwork.sensor6.ipv4 interfaceTableModule "\"ZeroWaitNetwork.sensor6.interfaceTable\""
par ZeroWaitNetwork.sensor6.ipv4 displayStringTextFormat "\"%i\""
par ZeroWaitNetwork.sensor6.nl typename "\"inet.common.MessageDispatcher\""
par ZeroWaitNetwork.sensor6.nl displayStringTextFormat "\"processed %p pk (%l)\""
par ZeroWaitNetwork.sensor6.nl forwardServiceRegistration true
par ZeroWaitNetwork.sensor6.nl forwardProtocolRegistration true
par ZeroWaitNetwork.sensor6.udp typename "\"inet.transportlayer.udp.Udp\""
par ZeroWaitNetwork.sensor6.udp interfaceTableModule "\"ZeroWaitNetwork.sensor6.interfaceTable\""
par ZeroWaitNetwork.sensor6.udp icmpModule "\"^.ipv4.icmp\""
par ZeroWaitNetwork.sensor6.udp icmpv6Module "\"^.ipv6.icmpv6\""
par ZeroWaitNetwork.sensor6.udp crcMode "\"declared\""
attr enum disabled,declared,computed
par ZeroWaitNetwork.sensor6.udp defaultMulticastLoop true
scalar ZeroWaitNetwork.sensor6.udp packetReceived:count 64
attr interpolationmode none
attr recordingmode count
attr source packetReceived
attr title "packets received, count"
scalar ZeroWaitNetwork.sensor6.udp packetReceived:sum(packetBytes) 704
attr interpolationmode none
attr recordingmode sum(packetBytes)
attr source packetReceived
attr title "packets received, sum(packetBytes)"
scalar ZeroWaitNetwork.sensor6.udp packetSent:count 65
attr interpolationmode none
attr recordingmode count
attr source packetSent
attr title "packets sent, count"
scalar ZeroWaitNetwork.sensor6.udp packetSent:sum(packetBytes) 1105
attr interpolationmode none
attr recordingmode sum(packetBytes)
attr source packetSent
attr title "packets sent, sum(packetBytes)"
scalar ZeroWaitNetwork.sensor6.udp passedUpPk:count 64
attr interpolationmode none
attr recordingmode count
attr source packetSentToUpper
attr title "packets passed up, count"
scalar ZeroWaitNetwork.sensor6.udp droppedPkWrongPort:count 0
attr interpolationmode none
attr recordingmode count
attr source packetDropReasonIsNoPortFound(packetDropped)
attr title "packets dropped (wrong port), count"
scalar ZeroWaitNetwork.sensor6.udp droppedPkBadChecksum:count 0
attr interpolationmode none
attr recordingmode count
attr source packetDropReasonIsIncorrectlyReceived(packetDropped)
attr title "packets dropped (checksum error), count"
par ZeroWaitNetwork.sensor6.tcp typename "\"inet.transportlayer.tcp.Tcp\""
par ZeroWaitNetwork.sensor6.tcp crcMode "\"declared\""
attr enum declared,computed
par ZeroWaitNetwork.sensor6.tcp advertisedWindow 7504
par ZeroWaitNetwork.sensor6.tcp delayedAcksEnabled false
par ZeroWaitNetwork.sensor6.tcp nagleEnabled true
par ZeroWaitNetwork.sensor6.tcp limitedTransmitEnabled false
par ZeroWaitNetwork.sensor6.tcp increasedIWEnabled false
par ZeroWaitNetwork.sensor6.tcp sackSupport false
par ZeroWaitNetwork.sensor6.tcp windowScalingSupport false
par ZeroWaitNetwork.sensor6.tcp windowScalingFactor -1
par ZeroWaitNetwork.sensor6.tcp timestampSupport false
par ZeroWaitNetwork.sensor6.tcp mss 536
par ZeroWaitNetwork.sensor6.tcp msl 120s
attr unit s
par ZeroWaitNetwork.sensor6.tcp tcpAlgorithmClass "\"TcpReno\""
attr enum TcpVegas,TcpWestwood,TcpNewReno,TcpReno,TcpTahoe,TcpNoCongestionControl
par ZeroWaitNetwork.sensor6.tcp useDataNotification false
par ZeroWaitNetwork.sensor6.tcp dupthresh 3
par ZeroWaitNetwork.sensor6.tcp initialSsthresh 4294967295
par ZeroWaitNetwork.sensor6.tcp stopOperationExtraTime 0s
attr unit s
par ZeroWaitNetwork.sensor6.tcp stopOperationTimeout 2s
attr unit s
par ZeroWaitNetwork.sensor6.tcp ecnWillingness false
par ZeroWaitNetwork.sensor6.tcp dctcpGamma 0.0625
par ZeroWaitNetwork.sensor6.tn typename "\"inet.common.MessageDispatcher\""
par ZeroWaitNetwork.sensor6.tn displayStringTextFormat "\"processed %p pk (%l)\""
par ZeroWaitNetwork.sensor6.tn forwardServiceRegistration true
par ZeroWaitNetwork.sensor6.tn forwardProtocolRegistration true
par ZeroWaitNetwork.sensor6.app[0] typename "\"zero_wait.simulations.DQNSensorApp\""
par ZeroWaitNetwork.sensor6.app[0] interfaceTableModule "\"ZeroWaitNetwork.sensor6.interfaceTable\""
par ZeroWaitNetwork.sensor6.app[0] localAddress "\"\""
par ZeroWaitNetwork.sensor6.app[0] localPort 1000
par ZeroWaitNetwork.sensor6.app[0] destPort 1000
par ZeroWaitNetwork.sensor6.app[0] destAddresses "\"control\""
par ZeroWaitNetwork.sensor6.app[0] sendInterval 0.1s
attr unit s
par ZeroWaitNetwork.sensor6.app[0] startTime 0s
attr unit s
par ZeroWaitNetwork.sensor6.app[0] useAutoConfig true
par ZeroWaitNetwork.sensor6.at typename "\"inet.common.MessageDispatcher\""
par ZeroWaitNetwork.sensor6.at displayStringTextFormat "\"processed %p pk (%l)\""
par ZeroWaitNetwork.sensor6.at forwardServiceRegistration true
par ZeroWaitNetwork.sensor6.at forwardProtocolRegistration true
par ZeroWaitNetwork.sensor6 typename "\"inet.node.inet.WirelessHost\""
par ZeroWaitNetwork.sensor6 hasStatus false
par ZeroWaitNetwork.sensor6 osgModel "\"\""
par ZeroWaitNetwork.sensor6 osgModelColor "\"\""
par ZeroWaitNetwork.sensor6 canvasImage "\"\""
par ZeroWaitNetwork.sensor6 canvasImageColor "\"\""
par ZeroWaitNetwork.sensor6 recordPcap false
par ZeroWaitNetwork.sensor6 numPcapRecorders 0
par ZeroWaitNetwork.sensor6 numLoInterfaces 1
par ZeroWaitNetwork.sensor6 numWlanInterfaces 1
par ZeroWaitNetwork.sensor6 numEthInterfaces 0
par ZeroWaitNetwork.sensor6 numPppInterfaces 0
par ZeroWaitNetwork.sensor6 numTunInterfaces 0
par ZeroWaitNetwork.sensor6 numVirtInterfaces 0
par ZeroWaitNetwork.sensor6 fcsMode "\"declared\""
attr enum declared,computed
par ZeroWaitNetwork.sensor6 hasIpv4 true
par ZeroWaitNetwork.sensor6 hasIpv6 false
par ZeroWaitNetwork.sensor6 hasGn false
par ZeroWaitNetwork.sensor6 forwarding false
par ZeroWaitNetwork.sensor6 multicastForwarding false
par ZeroWaitNetwork.sensor6 hasUdp true
par ZeroWaitNetwork.sensor6 hasTcp true
par ZeroWaitNetwork.sensor6 hasSctp false
par ZeroWaitNetwork.sensor6 numApps 1
par ZeroWaitNetwork typename "\"zero_wait.simulations.ZeroWaitNetwork\""
par ZeroWaitNetwork numSensors 7
par ZeroWaitNetwork areaWidth 500
par ZeroWaitNetwork areaHeight 500

